# WEL package for  MODFLOW-2005, generated by Flopy.
         1         0 
         1         0 # stress period 1
         1        48        48             0.0
         1         0 # stress period 2
         1        48        48          -500.0
