# LPF package for  MODFLOW-2005, generated by Flopy.
        53    -1E+30         0  
         1
         0
   1.000000E+00
         0
         0
INTERNAL               1  (50E15.6) -1 #hk layer 1                    
   2.338933E+00   1.238484E+00   1.120122E+00   1.637324E+00   2.040725E+00   1.280459E+00   3.018579E+00   1.223381E+00   1.000609E+00   1.208331E+00   4.303799E+00   1.548146E+00   7.715845E+00   4.803947E+00   3.681878E+00   3.623375E+00   2.679862E+00   8.155806E+00   1.228983E+01   7.602712E+00   6.564557E+00   7.357565E+00   8.498588E+00   9.574813E+00   6.076233E+00   3.264815E+00   4.066404E+00   3.557148E+00   3.057330E+00   3.934222E+00   1.850888E+00   1.349408E+00   1.248246E+00   1.126030E+00   8.434969E-01   1.017738E+00   8.810132E-01   9.413460E-01   4.604301E-01   6.422861E-01   6.012532E-01   6.317936E-01   2.625523E-01   5.841881E-01   7.246512E-01   9.232028E-01   2.083240E+00   2.614975E+00   1.043631E+00   4.061183E-01
   3.341096E+00   3.439744E+00   2.023926E+00   2.095741E+00   2.511782E+00   1.962362E+00   1.281641E+00   7.112722E-01   1.372658E+00   6.077333E+00   3.644732E+00   9.814688E+00   7.871117E+00   4.011282E+00   4.468984E+00   6.957979E+00   5.092491E+00   8.725537E+00   3.228201E+01   5.986429E+00   1.916625E+01   1.933686E+01   1.652749E+01   5.881083E+00   3.726830E+00   2.119231E+00   1.657905E+00   1.711942E+00   2.406178E+00   1.557815E+00   8.616174E-01   5.670774E-01   3.995956E-01   3.280127E-01   4.329016E-01   5.133535E-01   8.564774E-01   5.159795E-01   4.155338E-01   4.750738E-01   3.631389E-01   3.638841E-01   6.965464E-01   8.529186E-01   1.102801E+00   1.133098E+00   9.721043E-01   1.242551E+00   5.998986E-01   9.209622E-01
   3.347842E+00   3.137976E+00   4.360514E+00   3.284903E+00   3.918297E+00   1.533789E+00   1.208908E+00   1.550424E+00   5.232337E+00   1.927771E+00   5.349329E+00   7.933165E+00   1.117134E+01   5.518351E+00   3.964830E+00   3.796623E+00   8.187774E+00   9.097567E+00   1.419638E+01   1.294172E+01   2.277123E+01   1.282320E+01   1.201296E+01   2.174469E+00   3.552935E+00   1.357884E+00   2.231288E+00   1.987818E+00   5.871920E-01   9.521030E-01   2.768230E-01   3.854768E-01   2.884955E-01   2.942604E-01   3.293504E-01   6.527941E-01   8.267105E-01   4.850851E-01   2.607511E-01   5.804723E-01   6.486863E-01   5.301769E-01   9.088612E-01   7.714535E-01   1.181799E+00   9.291759E-01   5.929886E-01   7.505419E-01   9.926667E-01   2.058070E+00
   7.928533E+00   5.648534E+00   4.271824E+00   3.061889E+00   2.317161E+00   2.020358E+00   2.392150E+00   6.495580E+00   5.469832E+00   6.138755E+00   2.023660E+01   2.292436E+01   1.586579E+01   7.648266E+00   5.940546E+00   2.267177E+00   8.060028E+00   7.842950E+00   1.140246E+01   1.293825E+01   6.593313E+00   9.050572E+00   5.417958E+00   3.029656E+00   2.423564E+00   1.686962E+00   1.240618E+00   1.239967E+00   1.343253E+00   3.245567E-01   2.455747E-01   1.610805E-01   2.897557E-01   4.170329E-01   3.870870E-01   2.948048E-01   3.195581E-01   2.872291E-01   5.930036E-01   7.717310E-01   9.816310E-01   7.639469E-01   6.830838E-01   9.635870E-01   9.022139E-01   8.687549E-01   6.283645E-01   9.666317E-01   1.324814E+00   1.395060E+00
   9.149928E+00   9.372398E+00   5.553676E+00   3.120568E+00   6.224450E+00   3.836441E+00   6.717130E+00   9.700700E+00   9.631664E+00   2.026044E+01   2.521049E+01   2.821653E+01   7.760168E+00   5.270905E+00   2.998260E+00   5.025616E+00   6.828117E+00   9.064032E+00   7.213953E+00   3.450700E+00   5.595390E+00   3.965595E+00   3.290452E+00   2.998419E+00   3.752990E+00   1.294378E+00   2.112422E+00   2.389835E+00   1.430173E+00   3.967696E-01   2.136195E-01   2.527193E-01   3.392062E-01   5.617673E-01   2.774113E-01   3.822834E-01   2.578297E-01   4.713322E-01   7.890171E-01   8.085134E-01   1.236069E+00   5.899720E-01   1.153341E+00   1.688818E+00   7.003086E-01   4.601619E-01   6.354567E-01   1.218609E+00   1.011267E+00   1.150937E+00
   9.798046E+00   5.994300E+00   7.942674E+00   9.877249E+00   4.667768E+00   5.647150E+00   1.564690E+01   1.214357E+01   1.869662E+01   3.832016E+01   3.187946E+01   1.512394E+01   6.426467E+00   5.614087E+00   6.632176E+00   4.009526E+00   5.094339E+00   4.505996E+00   4.413270E+00   3.782681E+00   8.940674E+00   4.463356E+00   4.867430E+00   1.538155E+00   1.029153E+00   2.386137E+00   1.647655E+00   1.385834E+00   3.860989E-01   2.417989E-01   2.299788E-01   3.065253E-01   4.807067E-01   6.711791E-01   4.231722E-01   1.531318E-01   2.302962E-01   1.090339E+00   7.720254E-01   1.314272E+00   1.564901E+00   9.009480E-01   8.258561E-01   6.499057E-01   3.693334E-01   3.454798E-01   2.691523E-01   1.251615E+00   1.149406E+00   7.380015E-01
   3.754680E+00   3.427297E+00   1.235642E+01   6.781403E+00   1.157636E+01   1.232051E+01   1.025921E+01   2.046641E+01   1.484259E+01   1.910660E+01   7.009778E+00   5.688804E+00   3.769544E+00   5.172019E+00   5.448498E+00   5.656962E+00   2.182727E+00   3.125502E+00   3.558090E+00   7.748769E+00   4.778086E+00   6.191857E+00   3.889766E+00   1.571210E+00   1.931846E+00   2.829973E+00   1.545461E+00   7.616412E-01   2.193824E-01   1.473544E-01   2.206071E-01   6.539235E-01   1.030070E+00   1.086949E+00   3.122063E-01   4.342911E-01   7.539030E-01   5.055132E-01   3.130138E+00   2.595830E+00   1.135147E+00   6.601505E-01   3.349872E-01   2.837425E-01   2.218269E-01   2.158888E-01   1.123584E+00   1.537222E+00   8.612978E-01   1.376704E+00
   2.943484E+00   4.150605E+00   8.191041E+00   4.037679E+00   8.796105E+00   9.123569E+00   1.206487E+01   9.606241E+00   1.341153E+01   6.125773E+00   2.231939E+00   2.326441E+00   3.299177E+00   3.553347E+00   3.291956E+00   1.604211E+00   1.454212E+00   4.479243E+00   6.990842E+00   3.656579E+00   5.986471E+00   6.419094E+00   1.707908E+00   1.686584E+00   1.043857E+00   9.793147E-01   3.808711E-01   6.120675E-01   2.802663E-01   4.238386E-01   3.197717E-01   1.123644E+00   1.561621E+00   6.932561E-01   4.552454E-01   7.832145E-01   6.635218E-01   2.203660E+00   1.775705E+00   1.242484E+00   4.197454E-01   1.966500E-01   2.271206E-01   2.128750E-01   2.345951E-01   6.906173E-01   9.721839E-01   8.559503E-01   1.150487E+00   1.661021E+00
   3.125646E+00   5.019930E+00   3.777570E+00   8.351925E+00   1.025267E+01   8.188306E+00   5.166813E+00   7.627705E+00   6.622752E+00   4.946781E+00   1.402711E+00   1.500966E+00   1.961111E+00   2.152184E+00   1.602432E+00   1.827830E+00   1.923280E+00   2.178777E+00   4.791507E+00   3.631929E+00   6.239150E+00   2.401781E+00   2.338653E+00   2.516332E+00   1.409268E+00   7.686512E-01   3.478889E-01   2.904427E-01   5.060530E-01   3.640413E-01   3.805060E-01   1.058495E+00   7.743383E-01   4.389823E-01   7.528995E-01   8.877763E-01   2.906893E+00   2.493717E+00   2.381833E+00   6.777574E-01   3.066295E-01   2.639238E-01   1.661398E-01   1.721776E-01   2.788261E-01   6.111758E-01   7.750039E-01   1.109280E+00   1.405527E+00   1.160495E+00
   3.802337E+00   2.868451E+00   4.149725E+00   9.475931E+00   9.049839E+00   8.716031E+00   1.253732E+01   1.217394E+01   3.691345E+00   2.022147E+00   1.563959E+00   1.924489E+00   2.473651E+00   2.139431E+00   2.242485E+00   8.701648E-01   2.052435E+00   3.772855E+00   3.750394E+00   4.730075E+00   4.752639E+00   1.612688E+00   2.272138E+00   1.950508E+00   8.294728E-01   5.049835E-01   1.850432E-01   2.853391E-01   6.520793E-01   1.161294E+00   1.252517E+00   1.214110E+00   7.820206E-01   4.097366E-01   8.338965E-01   2.109699E+00   5.647122E+00   1.889485E+00   9.064562E-01   3.822069E-01   2.183589E-01   1.659035E-01   1.893498E-01   2.773286E-01   4.344117E-01   3.289489E-01   3.723749E-01   8.378318E-01   4.198118E-01   3.075517E-01
   2.832515E+00   6.586585E+00   1.274695E+01   1.279544E+01   1.171714E+01   1.763836E+01   7.652948E+00   3.116589E+00   1.838050E+00   2.259865E+00   1.364148E+00   2.089205E+00   2.228190E+00   9.124752E-01   1.055438E+00   2.371617E+00   1.992176E+00   3.767712E+00   3.085424E+00   2.768498E+00   1.438224E+00   1.610684E+00   7.854962E-01   9.049964E-01   3.945485E-01   3.127663E-01   5.315406E-01   4.659999E-01   7.702832E-01   1.391657E+00   9.260309E-01   4.047619E-01   1.544605E+00   1.100098E+00   2.795008E+00   3.766842E+00   1.853868E+00   6.651596E-01   6.913592E-01   3.410217E-01   4.399318E-01   2.018812E-01   1.554757E-01   3.250329E-01   2.459197E-01   2.308676E-01   1.205999E-01   1.924196E-01   2.439097E-01   7.763247E-01
   2.031610E+00   4.783220E+00   6.539031E+00   1.319244E+01   1.283313E+01   7.253361E+00   4.820357E+00   1.533116E+00   2.033518E+00   1.826065E+00   1.727346E+00   1.303568E+00   1.121492E+00   1.295550E+00   3.067209E+00   1.450835E+00   1.709810E+00   3.810769E+00   1.495591E+00   1.152831E+00   5.566401E-01   4.901053E-01   6.396398E-01   4.819624E-01   4.872990E-01   5.469044E-01   6.981377E-01   3.028260E-01   7.448390E-01   8.911645E-01   9.007037E-01   8.344103E-01   1.037516E+00   1.551297E+00   4.570945E+00   9.363082E-01   9.740703E-01   4.712054E-01   3.909495E-01   3.885151E-01   3.493923E-01   2.554624E-01   1.949500E-01   3.335795E-01   1.707705E-01   1.172064E-01   7.544058E-02   9.532692E-02   2.329382E-01   3.650526E-01
   2.896757E+00   4.846482E+00   6.679820E+00   4.447535E+00   5.296642E+00   2.896792E+00   1.418973E+00   1.004312E+00   1.162512E+00   1.824674E+00   1.152491E+00   1.606806E+00   9.828675E-01   8.723816E-01   8.766828E-01   2.428882E+00   2.577292E+00   1.315880E+00   1.227245E+00   3.701079E-01   3.289897E-01   4.337477E-01   4.982898E-01   5.085750E-01   7.464297E-01   1.146901E+00   2.749261E-01   7.844462E-01   8.347391E-01   6.389449E-01   4.034204E-01   8.969366E-01   1.112903E+00   3.519310E+00   1.666791E+00   1.197813E+00   5.262326E-01   4.472330E-01   5.222067E-01   2.800562E-01   3.988420E-01   1.569305E-01   1.302329E-01   2.206033E-01   1.753422E-01   6.680736E-02   9.122430E-02   1.259189E-01   2.840369E-01   9.496598E-01
   4.976650E+00   1.119120E+01   4.229222E+00   3.890264E+00   2.374992E+00   1.320782E+00   9.930274E-01   1.094164E+00   1.237655E+00   8.105518E-01   1.640849E+00   1.454416E+00   1.117195E+00   1.283657E+00   1.824883E+00   1.652215E+00   9.588780E-01   8.479437E-01   2.747914E-01   2.819414E-01   4.130691E-01   4.369667E-01   3.787076E-01   6.744175E-01   2.041386E+00   4.717086E-01   7.557162E-01   9.695104E-01   7.871360E-01   4.755043E-01   5.164162E-01   1.438725E+00   2.048262E+00   1.609262E+00   1.498728E+00   1.060258E+00   4.091809E-01   4.261502E-01   3.309331E-01   2.406685E-01   2.201635E-01   1.169874E-01   2.725427E-01   4.035200E-01   1.723062E-01   2.246666E-01   1.089759E-01   1.351514E-01   4.398662E-01   1.630034E+00
   7.446931E+00   3.161565E+00   4.300899E+00   2.545281E+00   2.101841E+00   6.442919E-01   9.291109E-01   1.400408E+00   1.263517E+00   2.378304E+00   2.565985E+00   9.837490E-01   5.558475E-01   1.093557E+00   1.255587E+00   5.226991E-01   8.258300E-01   6.054651E-01   3.087801E-01   3.493486E-01   6.141384E-01   2.569330E-01   1.013665E+00   1.910260E+00   1.225423E+00   8.667191E-01   6.283337E-01   9.759893E-01   2.195911E+00   1.296096E+00   2.430877E+00   2.871114E+00   3.068902E+00   2.066305E+00   1.124441E+00   6.508010E-01   3.262736E-01   3.070508E-01   4.132355E-01   4.791326E-01   2.801828E-01   2.500443E-01   2.650404E-01   1.375364E-01   1.361462E-01   2.381987E-01   1.478781E-01   2.525035E-01   6.276035E-01   1.450513E+00
   8.304819E+00   5.130212E+00   2.344271E+00   1.465089E+00   6.884401E-01   8.702279E-01   1.475024E+00   1.728708E+00   1.322555E+00   9.870703E-01   1.058378E+00   6.029599E-01   4.896439E-01   9.989250E-01   7.117963E-01   1.032658E+00   1.541003E+00   2.500446E-01   2.130582E-01   4.296388E-01   3.444908E-01   7.942008E-01   1.645841E+00   1.735660E+00   1.057707E+00   6.537945E-01   9.978009E-01   3.518124E+00   2.832274E+00   2.484136E+00   2.026321E+00   3.314521E+00   1.856009E+00   7.881058E-01   6.424645E-01   4.157723E-01   2.095682E-01   5.557402E-01   4.899744E-01   3.533865E-01   2.404608E-01   1.670206E-01   1.603954E-01   2.280510E-01   2.700379E-01   1.999832E-01   2.514153E-01   2.071171E-01   7.724358E-01   5.949956E-01
   2.569975E+00   3.078191E+00   9.456665E-01   6.231033E-01   4.391643E-01   4.769575E-01   1.415339E+00   1.187577E+00   7.007330E-01   6.057448E-01   2.788127E-01   4.433668E-01   5.660670E-01   5.466552E-01   7.614353E-01   7.080086E-01   2.814608E-01   1.822985E-01   3.567165E-01   6.225005E-01   4.436635E-01   1.558900E+00   1.677391E+00   5.830095E-01   6.171921E-01   2.257185E+00   2.951383E+00   4.499512E+00   2.055140E+00   1.424342E+00   2.613668E+00   2.387046E+00   2.489827E+00   9.517911E-01   2.528171E-01   3.084878E-01   5.917018E-01   6.511303E-01   5.883871E-01   1.659334E-01   1.404514E-01   2.503839E-01   1.585336E-01   1.717844E-01   1.805853E-01   4.772886E-01   5.284929E-01   6.842688E-01   8.006228E-01   1.184952E+00
   1.887007E+00   1.907884E+00   1.003349E+00   6.742902E-01   4.378119E-01   1.536546E+00   7.437948E-01   7.934760E-01   7.323367E-01   3.436162E-01   4.901504E-01   6.131722E-01   6.301152E-01   5.154843E-01   5.265135E-01   4.182068E-01   4.025050E-01   3.014464E-01   4.308091E-01   5.522794E-01   8.685262E-01   8.464650E-01   1.126193E+00   8.876110E-01   2.215557E+00   6.005916E+00   8.895691E+00   3.481670E+00   1.118896E+00   1.306782E+00   1.561014E+00   1.468254E+00   8.645835E-01   3.744660E-01   6.478037E-01   4.659190E-01   9.150875E-01   6.853092E-01   2.462022E-01   1.296509E-01   1.073490E-01   1.437588E-01   2.000738E-01   3.545975E-01   3.162700E-01   3.546358E-01   3.989949E-01   1.204966E+00   2.147562E+00   1.617033E+00
   1.318687E+00   1.157291E+00   8.306304E-01   2.632629E-01   1.015621E+00   2.140238E+00   6.749997E-01   6.775028E-01   6.927003E-01   6.309879E-01   7.319646E-01   1.072569E+00   2.876100E-01   3.575046E-01   5.059077E-01   6.928918E-01   2.861111E-01   7.499397E-01   1.423986E+00   2.099536E+00   8.452498E-01   1.902594E+00   1.522957E+00   2.372702E+00   3.527904E+00   5.474802E+00   4.215292E+00   2.318923E+00   1.393940E+00   1.432367E+00   1.336422E+00   7.306037E-01   4.467351E-01   6.624938E-01   4.111613E-01   4.272681E-01   5.610581E-01   2.246769E-01   1.238302E-01   2.366935E-01   1.621583E-01   1.119941E-01   2.321806E-01   4.696330E-01   2.683930E-01   5.976201E-01   4.871540E-01   1.731020E+00   9.827778E-01   1.405754E+00
   8.352241E-01   7.307905E-01   2.330522E-01   4.193171E-01   6.931355E-01   1.296007E+00   6.612222E-01   6.068444E-01   5.496410E-01   6.691328E-01   4.094540E-01   3.538826E-01   2.330636E-01   5.708299E-01   6.803144E-01   4.629246E-01   8.496146E-01   1.774353E+00   9.343944E-01   9.934107E-01   1.608709E+00   1.587486E+00   2.707638E+00   3.953993E+00   8.404305E+00   4.394532E+00   2.203265E+00   2.195792E+00   2.125572E+00   1.088629E+00   1.057334E+00   4.818442E-01   3.757328E-01   3.501306E-01   3.053456E-01   3.646705E-01   1.688293E-01   7.900216E-02   1.508635E-01   2.419730E-01   1.334929E-01   2.103072E-01   3.497989E-01   3.654006E-01   3.408659E-01   2.314876E-01   1.753361E+00   1.069467E+00   2.964641E+00   9.611642E-01
   4.125110E-01   3.068283E-01   5.415967E-01   3.190856E-01   6.102170E-01   9.607682E-01   5.023688E-01   3.009810E-01   5.401620E-01   4.311658E-01   1.843434E-01   1.801396E-01   3.604940E-01   5.163015E-01   6.175109E-01   6.180751E-01   1.301689E+00   8.983811E-01   7.510116E-01   9.207822E-01   1.332954E+00   2.236928E+00   2.458675E+00   2.678490E+00   2.712408E+00   2.549103E+00   4.204650E+00   1.511950E+00   1.603711E+00   8.122526E-01   7.106805E-01   2.032249E-01   2.534692E-01   2.138892E-01   2.377354E-01   1.692606E-01   1.079658E-01   2.320745E-01   1.723971E-01   1.394913E-01   2.067775E-01   2.357666E-01   7.729903E-01   2.237283E-01   1.283540E-01   6.431424E-01   1.412271E+00   1.862483E+00   3.702046E-01   8.105400E-01
   1.880973E-01   1.558446E-01   1.674615E-01   5.410920E-01   4.244757E-01   6.053172E-01   3.084073E-01   5.644886E-01   4.021264E-01   2.405698E-01   1.476656E-01   1.521215E-01   7.050484E-01   4.954777E-01   5.792037E-01   4.868111E-01   7.662241E-01   9.769918E-01   1.251305E+00   1.308644E+00   1.846531E+00   2.008984E+00   1.954983E+00   1.777365E+00   2.512675E+00   3.737642E+00   2.416661E+00   1.397750E+00   2.174892E+00   9.621862E-01   4.139110E-01   3.283511E-01   4.048605E-01   1.864209E-01   3.569059E-01   2.587849E-01   1.316711E-01   1.860585E-01   1.008376E-01   3.167837E-01   2.587169E-01   3.709023E-01   1.455649E-01   9.125997E-02   4.660985E-01   6.830232E-01   1.653997E+00   3.774663E-01   6.016662E-01   1.787778E+00
   1.874345E-01   8.522734E-02   4.254587E-01   3.815471E-01   5.042062E-01   1.446266E-01   5.292796E-01   5.014248E-01   2.554688E-01   3.323878E-01   1.612223E-01   6.141503E-01   5.863720E-01   4.414436E-01   3.782237E-01   8.446950E-01   1.402230E+00   2.038856E+00   1.416787E+00   1.363741E+00   2.249085E+00   3.018147E+00   2.521642E+00   1.772701E+00   1.233840E+00   1.281265E+00   1.542872E+00   1.641020E+00   1.087700E+00   7.386688E-01   3.865831E-01   2.749398E-01   4.094110E-01   3.218789E-01   2.444567E-01   1.870952E-01   1.104382E-01   7.032197E-02   1.736032E-01   2.487659E-01   2.007707E-01   8.331656E-02   9.343895E-02   3.288416E-01   4.802220E-01   8.635747E-01   4.975592E-01   5.698850E-01   1.786358E+00   1.987663E+00
   1.282824E-01   5.070656E-01   5.685599E-01   5.014542E-01   3.842027E-01   8.231760E-01   7.052658E-01   9.427757E-01   6.115311E-01   2.101497E-01   6.741997E-01   4.812235E-01   8.246291E-01   2.177994E-01   7.458129E-01   1.563340E+00   2.806862E+00   2.123249E+00   1.492203E+00   3.065679E+00   2.869449E+00   1.953851E+00   2.176927E+00   1.973983E+00   1.172188E+00   1.226622E+00   8.054665E-01   8.136358E-01   1.107374E+00   4.916072E-01   4.756169E-01   3.745590E-01   4.736152E-01   2.964979E-01   3.238739E-01   1.257346E-01   6.827443E-02   9.843232E-02   1.483632E-01   1.423869E-01   1.388756E-01   9.662015E-02   1.490776E-01   2.470748E-01   5.938959E-01   4.280167E-01   1.596046E+00   1.566957E+00   1.210553E+00   1.983235E+00
   1.715950E-01   5.476762E-01   3.619229E-01   3.679960E-01   5.533845E-01   6.442150E-01   1.198424E+00   9.053335E-01   2.225801E-01   5.274831E-01   6.856733E-01   7.610230E-01   4.296455E-01   4.570098E-01   1.449305E+00   1.560835E+00   2.088670E+00   1.611473E+00   2.420583E+00   1.754782E+00   1.687496E+00   3.029320E+00   8.216863E-01   1.372835E+00   1.592518E+00   1.427710E+00   7.198125E-01   8.409284E-01   3.769634E-01   6.717389E-01   3.816617E-01   5.516939E-01   2.621682E-01   1.930494E-01   1.931533E-01   1.653688E-01   2.387976E-01   1.853510E-01   2.268512E-01   9.934179E-02   1.231636E-01   8.411385E-02   1.047669E-01   4.604886E-01   5.373138E-01   6.614546E-01   9.969944E-01   1.961744E+00   1.557945E+00   4.910580E-01
   2.835525E-01   5.798178E-01   5.640125E-01   2.535703E-01   6.672047E-01   6.728045E-01   6.766360E-01   3.737262E-01   4.832208E-01   8.528433E-01   4.676335E-01   2.239317E-01   3.557205E-01   6.385824E-01   1.609800E+00   1.156952E+00   9.086583E-01   6.562397E-01   1.839860E+00   1.646794E+00   2.672246E+00   2.010749E+00   1.011083E+00   1.151707E+00   1.428086E+00   6.042134E-01   3.954339E-01   4.528714E-01   2.146641E-01   2.544563E-01   3.459047E-01   4.149217E-01   2.342021E-01   2.983816E-01   2.550423E-01   2.480153E-01   1.402358E-01   3.345848E-01   2.270071E-01   1.086031E-01   1.198699E-01   1.919754E-01   6.335741E-01   4.848862E-01   6.178846E-01   6.778696E-01   9.378670E-01   1.677512E+00   1.177951E+00   1.223516E+00
   5.482427E-01   4.335945E-01   3.237489E-01   7.759784E-01   5.774311E-01   7.312447E-01   7.997957E-01   7.120101E-01   7.540476E-01   9.009178E-01   2.510011E-01   3.446441E-01   5.238231E-01   8.990634E-01   1.376238E+00   4.332520E-01   6.369851E-01   2.055221E+00   3.311208E+00   3.475683E+00   3.366154E+00   1.555585E+00   1.391140E+00   1.658951E+00   5.040326E-01   9.554000E-01   4.439651E-01   2.438741E-01   2.073664E-01   2.743282E-01   7.502713E-01   3.783288E-01   2.450066E-01   2.050156E-01   1.618272E-01   8.816299E-02   4.194064E-01   1.335355E-01   1.007773E-01   1.225761E-01   3.130507E-01   4.979734E-01   1.055717E+00   7.024045E-01   6.500518E-01   5.612687E-01   1.064772E+00   2.080274E+00   1.365404E+00   5.616961E-01
   6.158483E-01   1.030410E+00   6.766649E-01   7.032369E-01   5.922354E-01   5.895754E-01   9.570640E-01   1.063191E+00   1.320644E+00   5.572404E-01   3.198341E-01   6.476457E-01   4.967718E-01   9.605237E-01   1.114736E+00   7.842098E-01   1.125766E+00   7.129986E-01   1.787739E+00   3.552931E+00   3.273013E+00   1.662091E+00   1.524401E+00   7.124242E-01   7.646223E-01   4.487274E-01   4.682438E-01   3.103406E-01   3.729801E-01   3.939601E-01   3.820505E-01   3.588151E-01   1.584676E-01   1.255455E-01   1.313325E-01   1.142808E-01   2.374102E-01   1.095879E-01   2.029122E-01   2.753938E-01   6.832749E-01   8.004814E-01   1.136947E+00   6.832125E-01   1.072271E+00   7.753817E-01   1.236191E+00   9.540053E-01   6.780772E-01   5.072978E-01
   1.060391E+00   4.965849E-01   1.268518E+00   1.064117E+00   1.065552E+00   1.501647E+00   1.543368E+00   1.930122E+00   1.061267E+00   4.586512E-01   1.246123E+00   6.128507E-01   1.003603E+00   9.728011E-01   6.308025E-01   9.108213E-01   1.190020E+00   2.201809E+00   1.732742E+00   2.299999E+00   2.453805E+00   2.621950E+00   1.951234E+00   1.046906E+00   5.777120E-01   3.672759E-01   2.133633E-01   5.999205E-01   1.676991E-01   2.283116E-01   2.816312E-01   1.494185E-01   2.086175E-01   4.639470E-02   9.752154E-02   1.637082E-01   1.983330E-01   2.125774E-01   4.160840E-01   1.080354E+00   7.426413E-01   7.064965E-01   8.195239E-01   1.844388E+00   8.055056E-01   6.474269E-01   9.482374E-01   1.236440E+00   1.052554E+00   9.210963E-01
   9.775898E-01   1.060843E+00   1.506247E+00   1.418600E+00   9.876115E-01   1.944618E+00   1.745474E+00   7.953522E-01   5.034037E-01   6.224708E-01   3.044173E-01   6.822311E-01   7.866279E-01   8.614227E-01   1.055877E+00   1.454232E+00   1.811368E+00   1.498256E+00   1.023867E+00   8.924013E-01   2.135146E+00   1.827964E+00   1.535371E+00   9.207984E-01   1.432258E-01   1.965660E-01   3.082041E-01   2.335629E-01   2.477466E-01   2.169531E-01   1.545195E-01   1.504799E-01   1.330544E-01   1.365277E-01   1.690833E-01   1.565302E-01   1.569938E-01   1.559918E-01   7.815731E-01   5.122403E-01   5.788224E-01   8.311156E-01   1.159913E+00   5.611775E-01   8.321649E-01   1.033582E+00   1.012658E+00   1.589490E+00   9.630626E-01   7.528709E-01
   1.745586E+00   1.860917E+00   1.816674E+00   1.911471E+00   2.774451E+00   1.709826E+00   7.229884E-01   3.530347E-01   3.123497E-01   4.324000E-01   4.110415E-01   8.306111E-01   1.049993E+00   1.007962E+00   1.369773E+00   8.965850E-01   2.457968E+00   1.219365E+00   6.132849E-01   2.137626E+00   1.164548E+00   1.774297E+00   6.837886E-01   2.231078E-01   2.413088E-01   3.103784E-01   6.438343E-01   3.296644E-01   2.251908E-01   1.575115E-01   1.174002E-01   2.302389E-01   2.299082E-01   2.285336E-01   1.541674E-01   1.656528E-01   2.093673E-01   6.588593E-01   1.362169E+00   4.265797E-01   3.531685E-01   5.318990E-01   5.725307E-01   8.214259E-01   6.718125E-01   7.329546E-01   9.374236E-01   9.522107E-01   6.024579E-01   6.616527E-01
   2.186113E+00   6.046115E+00   3.499314E+00   3.765136E+00   3.089061E+00   1.916374E+00   8.304419E-01   3.972869E-01   6.167202E-01   3.828028E-01   4.440445E-01   1.182224E+00   9.330496E-01   7.126397E-01   7.377599E-01   1.930501E+00   1.285555E+00   1.172575E+00   1.516317E+00   1.034877E+00   1.147940E+00   1.198097E+00   5.227197E-01   4.512718E-01   8.536294E-01   1.180360E+00   4.174646E-01   2.623384E-01   1.200846E-01   1.298280E-01   1.646316E-01   2.802585E-01   3.879432E-01   4.104979E-01   2.675869E-01   3.738289E-01   3.811719E-01   5.722133E-01   4.047211E-01   2.368683E-01   3.035476E-01   3.447744E-01   4.223017E-01   3.375857E-01   5.737717E-01   8.315393E-01   3.299365E-01   3.704476E-01   4.810199E-01   8.124643E-01
   3.395836E+00   4.940117E+00   6.577166E+00   4.220852E+00   3.280960E+00   1.401872E+00   4.194774E-01   6.657705E-01   1.193975E+00   4.905961E-01   6.729178E-01   7.323472E-01   4.366009E-01   4.346907E-01   1.108407E+00   1.802040E+00   1.690667E+00   8.745741E-01   1.298484E+00   6.330160E-01   1.119952E+00   6.532394E-01   5.509989E-01   1.125204E+00   1.220334E+00   6.314964E-01   1.357108E-01   1.880896E-01   2.393623E-01   1.868472E-01   1.519512E-01   3.456336E-01   1.617879E-01   2.459923E-01   3.365296E-01   3.577925E-01   7.488755E-01   3.904340E-01   2.058157E-01   2.148129E-01   4.099364E-01   2.686819E-01   3.572837E-01   2.405619E-01   4.146524E-01   3.168043E-01   2.204205E-01   2.023517E-01   9.579830E-01   5.605886E-01
   7.386057E+00   1.925163E+01   1.413441E+01   4.414877E+00   9.588851E-01   6.442325E-01   7.087300E-01   1.172727E+00   5.083885E-01   9.915262E-01   4.518053E-01   5.016018E-01   3.390838E-01   5.975562E-01   2.291612E+00   2.269108E+00   1.160695E+00   9.083153E-01   5.704340E-01   1.553586E+00   4.863300E-01   4.586119E-01   6.101184E-01   7.251744E-01   6.037184E-01   2.269799E-01   3.169475E-01   3.066191E-01   2.654130E-01   1.685166E-01   3.539230E-01   2.787369E-01   1.569814E-01   1.306640E-01   1.948970E-01   2.008343E-01   2.501849E-01   1.394988E-01   1.825219E-01   2.530645E-01   3.717380E-01   1.945125E-01   2.227122E-01   1.970689E-01   2.686500E-01   1.940598E-01   1.666583E-01   4.475679E-01   5.687144E-01   2.501879E-01
   1.025827E+01   1.072958E+01   4.570666E+00   1.563892E+00   8.897042E-01   1.318433E+00   1.268183E+00   1.023182E+00   7.943224E-01   2.813410E-01   4.012816E-01   2.526452E-01   3.078302E-01   1.150114E+00   2.452622E+00   1.684987E+00   8.490307E-01   8.106219E-01   5.710778E-01   6.726437E-01   4.816093E-01   3.115277E-01   4.272487E-01   4.762339E-01   4.681943E-01   3.229612E-01   1.674429E-01   2.077244E-01   1.576676E-01   1.734087E-01   4.120248E-01   8.702525E-02   2.049187E-01   1.657304E-01   1.533813E-01   1.084357E-01   2.694321E-01   3.390658E-01   2.543032E-01   4.660806E-01   4.590912E-01   3.166216E-01   2.605775E-01   3.140821E-01   4.155352E-01   3.752430E-01   4.712014E-01   4.342155E-01   3.522127E-01   4.063050E-01
   3.471546E+00   2.347241E+00   1.716423E+00   2.139891E+00   1.099094E+00   1.509638E+00   2.041693E+00   9.029035E-01   4.781319E-01   3.643119E-01   2.298958E-01   3.100992E-01   1.267414E+00   2.427728E+00   1.584028E+00   8.650424E-01   8.373888E-01   6.197078E-01   3.385153E-01   2.220553E-01   8.630343E-01   4.949716E-01   1.156540E+00   8.635039E-01   6.302867E-01   2.192721E-01   1.813376E-01   1.553681E-01   1.117726E-01   2.415454E-01   4.890174E-01   4.577167E-01   2.782581E-01   3.706527E-01   4.028935E-01   2.387565E-01   4.383731E-01   6.996726E-01   5.639502E-01   3.975353E-01   7.265582E-01   1.629228E-01   4.337474E-01   7.182326E-01   3.131835E-01   4.076728E-01   4.617231E-01   3.776322E-01   3.894067E-01   6.343033E-01
   8.312486E-01   1.113817E+00   1.998163E+00   1.064682E+00   8.557804E-01   1.150149E+00   7.752363E-01   1.629437E+00   4.330722E-01   2.461244E-01   3.774217E-01   1.876998E+00   4.827106E+00   1.226748E+00   1.565403E+00   1.128303E+00   3.658221E-01   4.375403E-01   2.129949E-01   4.822648E-01   1.388353E+00   8.763928E-01   6.967021E-01   7.765535E-01   3.865774E-01   2.712656E-01   2.784981E-01   1.053462E-01   3.002301E-01   3.585249E-01   9.640013E-01   3.187414E-01   5.787668E-01   6.547623E-01   3.774854E-01   4.191282E-01   8.995712E-01   7.207099E-01   3.575629E-01   2.281281E-01   2.456479E-01   5.167375E-01   8.775704E-01   5.384514E-01   4.665832E-01   7.618521E-01   4.914185E-01   5.726868E-01   7.062241E-01   3.228243E-01
   1.425407E+00   8.905622E-01   9.398688E-01   1.222657E+00   9.040507E-01   1.059182E+00   6.396658E-01   7.849389E-01   3.447230E-01   3.678342E-01   7.911348E-01   1.653121E+00   1.902173E+00   1.399187E+00   6.235642E-01   2.915867E-01   4.642090E-01   2.141103E-01   2.409533E-01   1.531920E+00   7.269789E-01   5.196248E-01   5.987917E-01   7.357326E-01   2.299393E-01   2.134337E-01   1.259008E-01   5.661147E-01   7.710661E-01   1.276317E+00   6.223336E-01   5.649901E-01   5.723039E-01   6.721109E-01   3.577203E-01   1.070239E+00   1.556251E+00   5.404318E-01   2.354382E-01   4.242658E-01   6.949541E-01   6.590953E-01   6.853915E-01   7.168094E-01   9.896652E-01   5.553935E-01   8.318987E-01   4.418218E-01   2.645204E-01   4.122054E-01
   9.246656E-01   8.114867E-01   2.018499E+00   1.161594E+00   1.087371E+00   6.532692E-01   1.141454E+00   8.203733E-01   7.754263E-01   6.464108E-01   1.984571E+00   2.355517E+00   1.100778E+00   5.154549E-01   2.202560E-01   2.461446E-01   2.401722E-01   2.417493E-01   1.014063E+00   7.174621E-01   4.623539E-01   6.588571E-01   1.852113E+00   6.589665E-01   4.608722E-01   8.617166E-02   3.996068E-01   5.874731E-01   1.516230E+00   6.382588E-01   8.077529E-01   7.432017E-01   6.863530E-01   9.934719E-01   1.402040E+00   1.247275E+00   6.811411E-01   6.930616E-01   4.050414E-01   6.251785E-01   4.297304E-01   9.194826E-01   1.710963E+00   8.042762E-01   8.235852E-01   5.570751E-01   6.023830E-01   3.237677E-01   2.762848E-01   4.517809E-01