# LPF package for  MODFLOW-2005, generated by Flopy.
        53    -1E+30         0  
         1
         0
   1.000000E+00
         0
         0
INTERNAL               1  (50E15.6) -1 #hk layer 1                    
   3.204211E+00   1.710380E+00   1.382395E+00   1.547070E+00   1.707652E+00   1.352364E+00   3.214516E+00   1.937209E+00   1.648498E+00   1.342864E+00   2.889405E+00   1.786875E+00   7.032071E+00   4.468987E+00   3.316039E+00   2.874813E+00   2.240746E+00   5.471537E+00   7.060493E+00   3.915986E+00   3.751962E+00   4.136473E+00   5.144930E+00   6.259864E+00   4.191215E+00   1.688000E+00   2.773078E+00   3.778799E+00   3.142087E+00   4.833587E+00   2.299624E+00   1.629711E+00   1.286896E+00   1.194606E+00   9.911655E-01   7.503380E-01   6.959220E-01   8.659474E-01   3.986892E-01   5.832670E-01   5.228813E-01   5.805490E-01   3.295579E-01   7.249287E-01   1.129972E+00   2.084882E+00   5.540073E+00   4.964522E+00   1.791401E+00   7.824200E-01
   4.477009E+00   4.388189E+00   2.450933E+00   1.853265E+00   2.470291E+00   2.681332E+00   2.208651E+00   9.289408E-01   1.695035E+00   5.104684E+00   3.610046E+00   7.469464E+00   5.247314E+00   3.734483E+00   3.163637E+00   4.614620E+00   3.388028E+00   5.172528E+00   1.720317E+01   3.200955E+00   1.131311E+01   1.097002E+01   1.024150E+01   3.990294E+00   1.852778E+00   1.182068E+00   1.593524E+00   1.851435E+00   2.817495E+00   2.227628E+00   1.007675E+00   7.439025E-01   4.480596E-01   3.426189E-01   4.533541E-01   4.949785E-01   7.686217E-01   5.087735E-01   3.260179E-01   3.887944E-01   3.416030E-01   3.600135E-01   8.012570E-01   1.040656E+00   2.642257E+00   2.542380E+00   1.838064E+00   2.116052E+00   7.890018E-01   1.139095E+00
   4.281492E+00   3.683763E+00   4.337982E+00   3.559217E+00   4.935383E+00   2.009576E+00   1.232840E+00   1.422623E+00   5.904490E+00   2.081576E+00   3.820327E+00   6.088077E+00   1.002839E+01   4.015977E+00   2.663503E+00   2.001732E+00   4.557047E+00   6.438744E+00   7.727287E+00   6.813096E+00   1.641735E+01   8.277451E+00   7.930831E+00   1.616356E+00   2.636310E+00   1.231934E+00   2.504968E+00   1.907988E+00   5.482652E-01   1.033240E+00   3.651624E-01   4.337563E-01   3.072988E-01   3.731282E-01   4.471130E-01   5.116948E-01   6.311871E-01   4.874313E-01   2.574011E-01   5.785328E-01   5.679957E-01   5.773191E-01   1.001551E+00   1.561852E+00   2.585933E+00   2.068588E+00   9.986944E-01   8.566440E-01   1.007447E+00   2.317961E+00
   7.330046E+00   6.108860E+00   5.205053E+00   4.076362E+00   2.627116E+00   2.141402E+00   2.145148E+00   6.263086E+00   4.867848E+00   4.766910E+00   1.191551E+01   1.670168E+01   1.152933E+01   4.327329E+00   3.589692E+00   1.517137E+00   5.128969E+00   5.373392E+00   7.061570E+00   9.961905E+00   5.170422E+00   6.431106E+00   3.857530E+00   2.345466E+00   1.810239E+00   1.785184E+00   1.339497E+00   1.073051E+00   1.422664E+00   5.671353E-01   3.900061E-01   1.977993E-01   3.421977E-01   4.536291E-01   3.864208E-01   2.928903E-01   2.931267E-01   4.050041E-01   6.730427E-01   7.840961E-01   8.859217E-01   7.409124E-01   1.459070E+00   1.822742E+00   1.840985E+00   1.668387E+00   8.467604E-01   1.058566E+00   1.088995E+00   1.240173E+00
   9.707946E+00   1.032591E+01   7.929736E+00   3.970592E+00   8.398034E+00   4.259520E+00   5.333146E+00   9.512586E+00   7.519239E+00   1.190933E+01   1.698929E+01   1.896611E+01   3.869028E+00   3.769945E+00   1.970713E+00   3.130238E+00   4.167926E+00   6.607744E+00   4.943804E+00   2.445822E+00   4.358683E+00   3.072642E+00   2.855531E+00   2.311565E+00   3.251985E+00   1.395979E+00   2.109732E+00   1.784646E+00   1.516162E+00   6.490002E-01   2.449762E-01   3.605874E-01   4.327656E-01   6.718283E-01   2.561755E-01   3.073566E-01   3.241164E-01   5.786312E-01   8.784085E-01   6.639464E-01   1.008084E+00   9.774286E-01   2.024981E+00   2.985402E+00   1.065576E+00   7.537193E-01   8.010211E-01   1.273903E+00   1.069075E+00   1.269411E+00
   1.110526E+01   8.806479E+00   9.644279E+00   1.289862E+01   7.495267E+00   5.682208E+00   1.475925E+01   1.161465E+01   1.229981E+01   1.938720E+01   2.554852E+01   1.058554E+01   4.011077E+00   4.186874E+00   4.338089E+00   2.911633E+00   4.957619E+00   3.370899E+00   3.193741E+00   2.795070E+00   4.429204E+00   2.921643E+00   5.042632E+00   1.745807E+00   1.082765E+00   2.284081E+00   1.558149E+00   1.505751E+00   5.167821E-01   3.829653E-01   3.216030E-01   3.755451E-01   5.905989E-01   6.282346E-01   4.473305E-01   2.162377E-01   3.253602E-01   1.097306E+00   7.357530E-01   1.004831E+00   1.837619E+00   1.504879E+00   1.390814E+00   9.651453E-01   5.116532E-01   6.401578E-01   3.948758E-01   1.720270E+00   1.384519E+00   1.141093E+00
   6.369464E+00   4.842561E+00   1.580684E+01   1.056739E+01   1.197248E+01   1.147035E+01   1.378104E+01   1.703425E+01   9.622497E+00   1.663790E+01   5.758235E+00   4.617545E+00   3.913296E+00   4.394584E+00   4.366803E+00   5.742313E+00   2.034729E+00   2.202253E+00   1.845924E+00   3.197166E+00   3.246063E+00   5.469086E+00   4.545572E+00   1.673957E+00   1.754812E+00   2.908578E+00   1.749615E+00   9.636286E-01   2.619504E-01   2.400199E-01   2.677658E-01   8.138703E-01   1.117861E+00   1.019274E+00   4.259274E-01   6.528536E-01   8.191596E-01   4.939147E-01   2.714221E+00   2.706218E+00   1.374242E+00   9.693235E-01   4.163123E-01   4.282342E-01   5.321645E-01   4.362768E-01   1.645665E+00   2.403987E+00   1.294304E+00   1.887589E+00
   4.872687E+00   7.065520E+00   1.294485E+01   4.990487E+00   8.133096E+00   9.319921E+00   1.405529E+01   8.917956E+00   1.158952E+01   6.401407E+00   2.957841E+00   2.964934E+00   3.569875E+00   2.903139E+00   3.384605E+00   1.676011E+00   1.085441E+00   2.769655E+00   3.847214E+00   2.024908E+00   3.400467E+00   4.918714E+00   2.022099E+00   1.781031E+00   1.118767E+00   1.249710E+00   4.712990E-01   6.930048E-01   3.710766E-01   6.063484E-01   5.216258E-01   1.173432E+00   1.371189E+00   8.935830E-01   5.667047E-01   9.670103E-01   7.801726E-01   2.400798E+00   1.784736E+00   1.439746E+00   5.359105E-01   2.486646E-01   2.618283E-01   4.257376E-01   5.095685E-01   1.209283E+00   1.439975E+00   1.131132E+00   1.988134E+00   1.771259E+00
   6.942554E+00   8.647140E+00   3.878429E+00   8.381414E+00   9.788442E+00   7.599554E+00   4.987716E+00   5.670748E+00   6.075286E+00   5.271083E+00   1.934716E+00   1.727829E+00   1.547263E+00   1.879201E+00   1.568976E+00   1.498543E+00   1.477462E+00   1.552952E+00   2.513699E+00   2.074852E+00   4.106666E+00   2.381773E+00   2.586782E+00   2.884818E+00   1.951521E+00   1.045791E+00   4.375186E-01   4.484320E-01   6.810287E-01   5.602211E-01   4.766811E-01   9.926392E-01   7.724867E-01   5.754237E-01   9.346237E-01   9.432197E-01   3.032222E+00   2.165038E+00   1.861502E+00   7.694284E-01   3.864368E-01   2.776636E-01   2.544119E-01   4.103827E-01   5.225337E-01   1.076224E+00   1.200746E+00   1.614298E+00   1.920313E+00   1.457681E+00
   1.051175E+01   3.565320E+00   4.716675E+00   8.304833E+00   8.072803E+00   7.627640E+00   1.146071E+01   9.720774E+00   3.255848E+00   2.252585E+00   1.637143E+00   1.947258E+00   2.269081E+00   2.312233E+00   1.671281E+00   7.068673E-01   1.350910E+00   2.042866E+00   2.477316E+00   3.172858E+00   4.059896E+00   1.893702E+00   2.141127E+00   2.076617E+00   1.293310E+00   7.099159E-01   3.576324E-01   4.188649E-01   8.526539E-01   1.345583E+00   1.550227E+00   1.173920E+00   8.957019E-01   5.354369E-01   8.125776E-01   1.751279E+00   4.970672E+00   1.888558E+00   1.224412E+00   5.416132E-01   3.067636E-01   2.780972E-01   5.054093E-01   5.345379E-01   6.615824E-01   5.514370E-01   7.537886E-01   1.598015E+00   6.363437E-01   5.267132E-01
   4.274349E+00   6.018196E+00   1.118793E+01   1.206082E+01   9.217898E+00   1.664120E+01   5.599082E+00   2.555073E+00   1.634596E+00   2.004822E+00   1.408250E+00   1.916602E+00   2.353741E+00   9.927512E-01   8.887997E-01   1.326310E+00   1.452554E+00   2.813508E+00   2.272071E+00   2.263440E+00   1.260993E+00   1.539494E+00   8.294662E-01   1.458634E+00   5.269284E-01   4.473596E-01   6.718897E-01   5.876409E-01   9.073887E-01   1.882490E+00   1.280553E+00   3.873694E-01   1.482101E+00   8.738575E-01   2.209173E+00   2.468441E+00   2.029954E+00   8.093827E-01   7.262453E-01   4.372744E-01   5.868016E-01   4.873902E-01   3.618656E-01   6.179181E-01   3.583940E-01   4.514758E-01   2.540533E-01   3.998557E-01   3.753006E-01   1.216589E+00
   2.334781E+00   4.998671E+00   5.743497E+00   9.717771E+00   1.056138E+01   5.909648E+00   3.601991E+00   1.253750E+00   1.829988E+00   2.139393E+00   1.725922E+00   1.169220E+00   1.428561E+00   1.255454E+00   2.022427E+00   1.002260E+00   1.578097E+00   2.636129E+00   1.445328E+00   9.573135E-01   6.135218E-01   5.535116E-01   8.358674E-01   5.872818E-01   6.418745E-01   8.059846E-01   8.700637E-01   4.198364E-01   9.698210E-01   1.358886E+00   1.116650E+00   9.412448E-01   9.005890E-01   1.048169E+00   2.884188E+00   7.711135E-01   1.203527E+00   5.691475E-01   5.297747E-01   6.272442E-01   7.626525E-01   5.524488E-01   3.693240E-01   5.527708E-01   3.065095E-01   3.365812E-01   2.477802E-01   1.958419E-01   4.983400E-01   7.337046E-01
   3.682341E+00   3.913850E+00   5.814115E+00   4.179935E+00   5.551303E+00   2.278040E+00   1.024804E+00   1.075850E+00   1.026482E+00   1.381517E+00   1.010111E+00   1.483964E+00   9.363723E-01   9.324054E-01   7.400993E-01   1.944555E+00   1.836101E+00   1.017351E+00   9.191495E-01   3.227767E-01   4.108931E-01   5.139853E-01   4.910846E-01   4.967153E-01   9.066415E-01   1.213817E+00   4.101373E-01   8.603664E-01   1.240128E+00   7.176401E-01   4.770382E-01   1.092229E+00   9.438800E-01   2.555502E+00   1.260110E+00   1.216903E+00   5.008972E-01   5.189962E-01   7.748338E-01   5.353391E-01   8.233292E-01   3.599212E-01   2.773951E-01   5.145355E-01   3.429294E-01   1.578451E-01   2.390382E-01   2.980650E-01   7.418688E-01   1.555330E+00
   4.313675E+00   8.634373E+00   3.901205E+00   2.634845E+00   1.351273E+00   9.951326E-01   9.866241E-01   9.939830E-01   1.194981E+00   7.233758E-01   1.030403E+00   1.274521E+00   1.117195E+00   1.327518E+00   1.344095E+00   1.053496E+00   6.991536E-01   7.377857E-01   2.347184E-01   3.259253E-01   5.086328E-01   4.411204E-01   4.438956E-01   7.157647E-01   2.041386E+00   7.633185E-01   9.161694E-01   1.293465E+00   9.656720E-01   7.213192E-01   6.828399E-01   1.103512E+00   1.521386E+00   1.024367E+00   1.180135E+00   1.238025E+00   4.091809E-01   5.673758E-01   4.668265E-01   4.271160E-01   4.420347E-01   2.205097E-01   5.190997E-01   9.770692E-01   4.243722E-01   6.044015E-01   2.733411E-01   3.380144E-01   9.732656E-01   3.248782E+00
   6.611813E+00   3.004834E+00   2.916171E+00   1.523874E+00   1.219789E+00   4.606940E-01   7.042428E-01   1.290622E+00   1.137493E+00   1.709704E+00   2.115567E+00   1.012332E+00   5.592188E-01   8.882827E-01   9.672565E-01   3.355575E-01   5.517855E-01   5.992538E-01   2.626686E-01   3.284823E-01   6.012855E-01   2.998540E-01   1.115178E+00   1.885603E+00   1.777015E+00   1.091519E+00   8.038549E-01   1.057081E+00   2.751054E+00   1.349220E+00   1.906389E+00   2.243996E+00   2.078432E+00   1.597528E+00   1.172179E+00   6.653822E-01   2.956349E-01   3.473615E-01   4.759049E-01   8.241119E-01   4.886029E-01   4.626482E-01   7.531838E-01   3.110443E-01   4.047751E-01   6.631034E-01   3.435754E-01   6.777292E-01   1.239662E+00   2.794103E+00
   6.062045E+00   3.718795E+00   1.505360E+00   1.019436E+00   5.361155E-01   6.698243E-01   1.137767E+00   1.590644E+00   1.208646E+00   7.749871E-01   9.226491E-01   4.895121E-01   3.694277E-01   7.166112E-01   4.316335E-01   6.144479E-01   1.078131E+00   1.739432E-01   1.936118E-01   3.460721E-01   4.138951E-01   8.735926E-01   2.287645E+00   1.891985E+00   1.189552E+00   8.164313E-01   1.253564E+00   3.603179E+00   2.656638E+00   2.351523E+00   1.623320E+00   2.437694E+00   1.876816E+00   7.802648E-01   5.636629E-01   3.532138E-01   2.084363E-01   6.596517E-01   6.380871E-01   6.740944E-01   4.850528E-01   4.665023E-01   4.395407E-01   5.879136E-01   6.723920E-01   4.805157E-01   6.559759E-01   3.859186E-01   1.417028E+00   8.957072E-01
   1.541301E+00   2.399185E+00   6.316572E-01   4.781879E-01   4.061781E-01   2.753740E-01   1.003038E+00   1.083687E+00   5.632464E-01   5.296551E-01   1.776292E-01   3.189549E-01   5.576122E-01   4.626302E-01   4.367278E-01   4.060008E-01   1.986584E-01   1.418472E-01   3.852379E-01   7.817881E-01   6.957441E-01   2.291866E+00   2.441205E+00   7.419903E-01   9.913957E-01   3.031258E+00   3.886422E+00   3.949975E+00   1.849448E+00   1.624338E+00   2.258827E+00   2.005126E+00   2.029036E+00   1.035721E+00   2.734647E-01   3.891883E-01   8.038661E-01   8.773867E-01   8.169337E-01   3.399338E-01   3.302377E-01   6.708353E-01   4.688510E-01   5.459995E-01   3.788103E-01   1.059746E+00   1.091695E+00   1.300176E+00   1.315575E+00   2.184108E+00
   1.101797E+00   1.016179E+00   6.490833E-01   5.371822E-01   3.197310E-01   9.818822E-01   6.516985E-01   5.420328E-01   6.013530E-01   2.403999E-01   3.120793E-01   5.556074E-01   4.333868E-01   3.310930E-01   3.288396E-01   3.187665E-01   3.038289E-01   3.497628E-01   4.492333E-01   7.853450E-01   1.534793E+00   1.079669E+00   1.534200E+00   1.191316E+00   3.375889E+00   8.253594E+00   7.903264E+00   3.219723E+00   1.166599E+00   1.192817E+00   1.352144E+00   1.042808E+00   8.078578E-01   5.106651E-01   6.314382E-01   6.639031E-01   1.556892E+00   1.269082E+00   4.253014E-01   3.144796E-01   2.918006E-01   4.198248E-01   6.785558E-01   5.284652E-01   5.685718E-01   6.236877E-01   1.008005E+00   1.923862E+00   3.221197E+00   2.685854E+00
   7.196038E-01   6.558166E-01   4.766878E-01   2.231217E-01   8.045199E-01   1.320246E+00   4.589738E-01   5.616891E-01   5.665029E-01   4.583426E-01   4.900395E-01   7.336850E-01   2.335871E-01   2.925990E-01   4.147321E-01   5.125248E-01   2.876426E-01   9.035677E-01   2.316796E+00   2.986509E+00   1.316821E+00   3.088962E+00   2.025216E+00   2.619265E+00   5.405400E+00   7.272120E+00   4.122218E+00   2.062399E+00   1.246194E+00   1.143875E+00   9.447237E-01   6.510432E-01   4.996863E-01   7.538127E-01   6.723974E-01   9.702456E-01   1.190213E+00   6.041110E-01   2.990164E-01   6.990985E-01   4.750809E-01   3.413633E-01   5.052123E-01   6.093518E-01   4.625150E-01   1.119292E+00   8.799213E-01   2.783309E+00   1.890660E+00   2.806143E+00
   3.914824E-01   5.019310E-01   1.563125E-01   3.196830E-01   5.589916E-01   7.898335E-01   5.381775E-01   4.925227E-01   4.395989E-01   4.895553E-01   3.107184E-01   3.163677E-01   2.535135E-01   5.726666E-01   4.922425E-01   3.995259E-01   1.047697E+00   2.510813E+00   1.855355E+00   2.011404E+00   2.875079E+00   1.920275E+00   2.831175E+00   5.249777E+00   8.693295E+00   3.679536E+00   2.146394E+00   1.795313E+00   1.393855E+00   9.078288E-01   1.026054E+00   5.936972E-01   5.096694E-01   5.735154E-01   5.771965E-01   7.392973E-01   5.171494E-01   1.983487E-01   3.563899E-01   5.106176E-01   3.527144E-01   4.908012E-01   5.611016E-01   5.671200E-01   7.366598E-01   4.763113E-01   3.122516E+00   2.270322E+00   5.370018E+00   2.263611E+00
   2.457948E-01   2.674851E-01   5.167890E-01   3.051540E-01   4.594274E-01   7.030604E-01   3.995290E-01   2.450321E-01   4.597779E-01   3.208235E-01   1.625847E-01   2.731779E-01   3.407903E-01   5.349097E-01   6.116074E-01   6.196299E-01   1.875289E+00   1.520468E+00   1.597552E+00   1.716452E+00   1.399868E+00   2.430032E+00   2.983732E+00   2.944533E+00   2.659658E+00   2.271975E+00   2.764056E+00   1.127852E+00   1.151997E+00   7.403302E-01   8.507928E-01   4.210628E-01   5.452422E-01   4.618564E-01   5.534167E-01   4.293212E-01   2.779368E-01   5.235709E-01   2.833551E-01   3.442862E-01   3.781200E-01   4.769546E-01   1.344953E+00   5.071808E-01   3.404422E-01   1.341627E+00   2.638331E+00   3.533187E+00   9.739278E-01   2.022614E+00
   1.463387E-01   1.755679E-01   1.412123E-01   5.353982E-01   3.417458E-01   5.303903E-01   2.557254E-01   5.179591E-01   4.077601E-01   2.525489E-01   2.327041E-01   2.157579E-01   9.141295E-01   6.109742E-01   5.316180E-01   7.374863E-01   1.339280E+00   1.679497E+00   2.059172E+00   1.355664E+00   2.130056E+00   2.067004E+00   2.198573E+00   2.042761E+00   2.632566E+00   2.920030E+00   1.703570E+00   8.207790E-01   1.919685E+00   1.009067E+00   6.742780E-01   8.281805E-01   6.341383E-01   4.522147E-01   6.607857E-01   5.172337E-01   2.974971E-01   4.561554E-01   2.103945E-01   5.778033E-01   3.916572E-01   5.668677E-01   4.113476E-01   2.168822E-01   8.944985E-01   1.283910E+00   3.042503E+00   8.409731E-01   1.606950E+00   3.793330E+00
   1.655739E-01   9.442357E-02   3.516786E-01   3.386610E-01   4.273052E-01   1.325577E-01   4.025755E-01   4.359832E-01   3.064268E-01   5.193381E-01   2.228442E-01   7.543290E-01   6.825396E-01   5.670413E-01   6.259586E-01   9.757764E-01   1.806092E+00   2.315390E+00   1.459759E+00   1.302116E+00   2.169719E+00   2.600907E+00   2.794547E+00   1.976758E+00   1.160777E+00   9.008538E-01   1.051520E+00   1.243714E+00   1.030821E+00   1.073062E+00   8.405505E-01   5.546268E-01   7.521376E-01   5.597675E-01   4.162759E-01   4.011508E-01   2.706244E-01   1.456284E-01   2.765019E-01   3.691111E-01   3.653150E-01   1.700850E-01   2.145401E-01   7.012334E-01   9.690820E-01   1.668859E+00   1.077928E+00   1.405810E+00   3.976119E+00   2.623249E+00
   1.202855E-01   5.227169E-01   5.416624E-01   4.869861E-01   3.378726E-01   5.845972E-01   7.585676E-01   7.906080E-01   8.126965E-01   4.233703E-01   9.421225E-01   7.037987E-01   1.033832E+00   3.775711E-01   9.626110E-01   1.961825E+00   3.254087E+00   2.098718E+00   1.271122E+00   2.349605E+00   2.057760E+00   2.989906E+00   1.895717E+00   1.380653E+00   6.437560E-01   7.667353E-01   6.439030E-01   7.825403E-01   1.394135E+00   7.653559E-01   7.109147E-01   6.347259E-01   7.884025E-01   4.609814E-01   5.431280E-01   2.714925E-01   1.242559E-01   1.438208E-01   1.944146E-01   1.707329E-01   2.094342E-01   1.822365E-01   2.932443E-01   5.564792E-01   1.217718E+00   1.102454E+00   3.878237E+00   4.223339E+00   1.993695E+00   2.179720E+00
   1.908439E-01   4.420559E-01   4.298216E-01   3.475540E-01   4.957657E-01   5.513903E-01   9.035159E-01   8.768573E-01   3.786401E-01   7.370213E-01   9.073048E-01   1.238553E+00   5.660089E-01   6.782928E-01   1.514127E+00   2.086607E+00   2.803221E+00   1.959447E+00   2.195253E+00   1.405003E+00   1.564461E+00   3.031769E+00   5.577244E-01   9.086688E-01   7.743500E-01   1.049023E+00   8.070852E-01   1.143988E+00   6.672060E-01   1.042737E+00   7.505279E-01   7.250097E-01   3.444272E-01   3.352174E-01   3.975170E-01   3.166098E-01   2.829266E-01   1.964789E-01   3.089952E-01   1.584650E-01   2.037670E-01   1.744727E-01   2.449195E-01   9.393997E-01   1.625994E+00   1.672635E+00   2.249226E+00   3.008450E+00   2.666501E+00   6.449561E-01
   2.602863E-01   6.841381E-01   4.983806E-01   2.542839E-01   6.324218E-01   5.044979E-01   5.154606E-01   4.020574E-01   5.576389E-01   1.133310E+00   8.094741E-01   2.717548E-01   3.557205E-01   8.207052E-01   2.111275E+00   1.532974E+00   9.804189E-01   6.900988E-01   1.113105E+00   1.655037E+00   2.472814E+00   1.578274E+00   6.947680E-01   8.650927E-01   1.428086E+00   6.774907E-01   5.046234E-01   7.227621E-01   3.910026E-01   4.799236E-01   6.019358E-01   7.305509E-01   3.648910E-01   6.457350E-01   4.721389E-01   2.870832E-01   1.402358E-01   3.922794E-01   2.895266E-01   1.257037E-01   1.847361E-01   3.888615E-01   1.092833E+00   1.325247E+00   1.611778E+00   1.823870E+00   1.964886E+00   2.744088E+00   1.950154E+00   2.164209E+00
   5.902907E-01   4.294458E-01   3.255621E-01   6.512061E-01   3.709739E-01   5.751030E-01   6.771021E-01   7.631883E-01   7.212638E-01   1.121337E+00   2.867946E-01   3.713062E-01   5.840291E-01   9.912483E-01   1.744137E+00   5.646567E-01   7.084886E-01   1.738880E+00   2.902604E+00   3.131328E+00   2.949109E+00   1.159204E+00   1.440018E+00   1.475227E+00   4.809386E-01   1.189809E+00   7.227809E-01   5.270550E-01   4.823326E-01   4.784124E-01   1.078662E+00   6.250479E-01   5.180134E-01   3.567250E-01   2.452458E-01   1.050601E-01   4.743255E-01   1.527114E-01   1.225597E-01   1.898449E-01   4.279865E-01   1.034251E+00   2.117998E+00   1.988531E+00   1.851936E+00   1.049815E+00   2.168270E+00   4.914948E+00   2.575217E+00   8.622363E-01
   6.226861E-01   8.816553E-01   5.720158E-01   5.797674E-01   6.698076E-01   6.080114E-01   8.717842E-01   8.368906E-01   1.053918E+00   6.495825E-01   3.212970E-01   6.985902E-01   5.199572E-01   1.193731E+00   1.266498E+00   8.353800E-01   1.058082E+00   6.502730E-01   1.779571E+00   2.697853E+00   2.992175E+00   1.568529E+00   1.357486E+00   5.284532E-01   6.805860E-01   6.188251E-01   8.845148E-01   6.505120E-01   6.419400E-01   5.476326E-01   5.244130E-01   7.155217E-01   2.615991E-01   1.663813E-01   1.784424E-01   1.521050E-01   2.920089E-01   1.446298E-01   3.106865E-01   4.062530E-01   1.165881E+00   1.561433E+00   2.546906E+00   1.911884E+00   2.581841E+00   1.510549E+00   3.038933E+00   2.000347E+00   1.151146E+00   7.450439E-01
   1.008093E+00   5.075788E-01   1.121442E+00   1.014534E+00   7.907040E-01   1.158773E+00   1.309760E+00   1.424906E+00   9.563348E-01   4.586532E-01   9.672525E-01   5.855307E-01   1.017208E+00   1.129760E+00   6.365833E-01   9.482857E-01   9.035158E-01   1.678920E+00   1.301450E+00   2.181922E+00   1.857821E+00   2.171947E+00   1.391381E+00   8.544129E-01   5.533746E-01   7.201589E-01   3.804120E-01   8.445317E-01   2.248604E-01   3.058653E-01   4.423137E-01   2.392778E-01   3.566231E-01   7.722378E-02   1.524192E-01   1.866318E-01   2.494951E-01   2.855702E-01   6.717188E-01   1.816587E+00   1.296045E+00   1.837443E+00   2.378175E+00   4.846926E+00   1.869271E+00   1.770372E+00   2.061614E+00   1.973537E+00   1.558694E+00   1.218480E+00
   9.603841E-01   1.027828E+00   1.482134E+00   1.273658E+00   9.091763E-01   2.097191E+00   1.408250E+00   7.322343E-01   4.733548E-01   4.370568E-01   3.708431E-01   6.534110E-01   9.103050E-01   8.241183E-01   8.788434E-01   1.277198E+00   1.558538E+00   1.698861E+00   1.088463E+00   9.017590E-01   1.547759E+00   1.180383E+00   1.071523E+00   7.982407E-01   2.460395E-01   3.842428E-01   4.625413E-01   4.016801E-01   2.701209E-01   2.718332E-01   2.331429E-01   2.986022E-01   1.989737E-01   2.489236E-01   2.432253E-01   2.486690E-01   2.111298E-01   3.209270E-01   1.441136E+00   9.834681E-01   1.498840E+00   2.064976E+00   2.722324E+00   1.569054E+00   2.206883E+00   1.952116E+00   1.505304E+00   2.423337E+00   1.659398E+00   8.788326E-01
   1.285952E+00   1.219048E+00   1.593701E+00   1.522513E+00   2.653418E+00   1.508951E+00   6.021167E-01   3.457669E-01   2.674154E-01   4.058207E-01   4.226038E-01   8.092349E-01   7.764671E-01   9.451573E-01   1.410854E+00   8.559166E-01   2.463481E+00   1.648590E+00   6.368920E-01   1.768726E+00   8.332435E-01   1.111235E+00   6.601050E-01   3.417308E-01   4.973643E-01   4.929113E-01   1.000386E+00   3.652639E-01   2.749014E-01   2.258717E-01   1.629854E-01   4.239577E-01   4.095502E-01   4.439469E-01   2.598006E-01   3.487055E-01   4.042896E-01   1.171792E+00   2.273143E+00   1.357040E+00   9.976083E-01   1.217488E+00   1.287551E+00   1.947241E+00   1.298508E+00   1.410691E+00   1.362181E+00   1.510299E+00   7.375574E-01   8.177423E-01
   1.911319E+00   4.099701E+00   2.630250E+00   3.007551E+00   2.966440E+00   2.072711E+00   8.114149E-01   3.571500E-01   5.329689E-01   3.785427E-01   3.574761E-01   6.728901E-01   7.770815E-01   1.012523E+00   7.311629E-01   1.646160E+00   1.045516E+00   1.141696E+00   1.337222E+00   9.319873E-01   6.890060E-01   1.117987E+00   5.330517E-01   6.833183E-01   1.153011E+00   1.806225E+00   4.703790E-01   2.316473E-01   1.410896E-01   2.071648E-01   3.186522E-01   4.810881E-01   8.349162E-01   7.662660E-01   5.389274E-01   6.395834E-01   6.902108E-01   1.048786E+00   9.711854E-01   6.786034E-01   6.708614E-01   6.599579E-01   1.037089E+00   7.290725E-01   1.042118E+00   1.453295E+00   5.617315E-01   5.686681E-01   6.294705E-01   6.949044E-01
   3.277931E+00   3.236039E+00   4.798359E+00   4.854622E+00   2.689511E+00   1.326491E+00   4.459132E-01   5.854928E-01   8.841486E-01   4.370070E-01   4.107758E-01   5.965291E-01   6.013620E-01   5.244954E-01   1.006708E+00   1.428292E+00   1.538164E+00   9.494335E-01   1.045752E+00   5.724037E-01   8.396143E-01   5.563932E-01   6.064959E-01   1.285695E+00   1.649267E+00   7.887825E-01   1.585684E-01   2.009173E-01   2.818541E-01   3.156774E-01   3.075997E-01   7.579008E-01   3.906646E-01   4.857266E-01   6.522334E-01   6.041996E-01   1.113090E+00   7.958589E-01   6.331147E-01   4.796814E-01   7.164370E-01   4.767535E-01   6.877545E-01   3.978561E-01   5.846308E-01   4.771981E-01   3.232158E-01   2.566828E-01   7.194559E-01   4.992049E-01
   4.467310E+00   1.234735E+01   1.323747E+01   3.845207E+00   9.660937E-01   6.240132E-01   5.423894E-01   9.084696E-01   3.692904E-01   5.323528E-01   3.899575E-01   4.654801E-01   4.217713E-01   5.415484E-01   1.931746E+00   2.323844E+00   1.042339E+00   1.041573E+00   5.463593E-01   1.349861E+00   4.009246E-01   4.163079E-01   6.682097E-01   6.918924E-01   7.480780E-01   2.414591E-01   3.809289E-01   3.994411E-01   2.979510E-01   3.168960E-01   6.823872E-01   6.329412E-01   3.934299E-01   2.533099E-01   4.092802E-01   3.573891E-01   4.192528E-01   3.856704E-01   3.431940E-01   3.456806E-01   5.600981E-01   3.252128E-01   4.037196E-01   3.165150E-01   4.256475E-01   2.561556E-01   2.320320E-01   4.431320E-01   4.817567E-01   2.905114E-01
   6.555494E+00   8.974622E+00   4.462821E+00   1.589993E+00   7.417853E-01   9.793368E-01   1.203707E+00   6.557395E-01   4.173383E-01   2.272003E-01   3.925927E-01   3.185397E-01   3.481110E-01   1.285002E+00   2.176665E+00   1.705079E+00   7.896335E-01   7.390749E-01   6.967603E-01   5.993065E-01   4.924841E-01   2.587946E-01   3.893328E-01   4.432864E-01   5.135288E-01   4.280667E-01   1.992785E-01   2.557772E-01   2.228744E-01   3.805349E-01   9.165437E-01   2.347961E-01   4.122664E-01   3.362083E-01   3.184421E-01   2.103686E-01   5.585961E-01   6.019275E-01   3.282679E-01   6.394837E-01   6.626077E-01   4.918315E-01   4.418321E-01   4.008174E-01   4.108246E-01   3.407556E-01   3.839404E-01   3.658576E-01   3.930178E-01   4.132506E-01
   2.793998E+00   2.910003E+00   1.873422E+00   1.877546E+00   8.960971E-01   1.135639E+00   1.428940E+00   6.500681E-01   3.990701E-01   3.153053E-01   2.412492E-01   3.299054E-01   1.299522E+00   2.513047E+00   1.750059E+00   7.853326E-01   7.339148E-01   7.341406E-01   3.798020E-01   2.705581E-01   6.525507E-01   4.372237E-01   9.958432E-01   7.964829E-01   8.833084E-01   2.597890E-01   2.002198E-01   2.044110E-01   1.963743E-01   4.160731E-01   9.947942E-01   8.243077E-01   6.527975E-01   7.165391E-01   7.018901E-01   3.772532E-01   6.967459E-01   9.136131E-01   7.224800E-01   4.886346E-01   9.864537E-01   2.962709E-01   5.960480E-01   8.306360E-01   2.987265E-01   4.226474E-01   4.305884E-01   4.200803E-01   3.563069E-01   4.725887E-01
   9.786659E-01   1.323353E+00   1.718385E+00   9.378189E-01   6.921207E-01   9.194251E-01   7.050445E-01   1.015087E+00   3.694461E-01   2.569378E-01   3.446016E-01   1.515989E+00   4.795523E+00   1.191643E+00   1.513554E+00   9.851701E-01   4.266842E-01   4.451796E-01   2.515534E-01   4.016638E-01   1.061912E+00   6.873816E-01   5.558801E-01   6.413319E-01   3.752186E-01   2.911436E-01   3.340446E-01   1.615104E-01   4.745468E-01   6.595109E-01   1.537951E+00   6.091284E-01   8.509545E-01   9.704577E-01   5.412187E-01   6.136621E-01   1.407009E+00   8.892711E-01   5.270014E-01   3.594854E-01   3.830377E-01   7.000490E-01   8.445138E-01   5.491639E-01   5.246440E-01   8.433544E-01   5.912477E-01   4.701950E-01   6.280951E-01   3.154529E-01
   1.691824E+00   1.084851E+00   1.016590E+00   1.120124E+00   7.363643E-01   8.196370E-01   5.301672E-01   6.572726E-01   2.768286E-01   3.124003E-01   5.842957E-01   1.282812E+00   1.902173E+00   1.353015E+00   5.487450E-01   3.034496E-01   3.716653E-01   1.996617E-01   2.552907E-01   1.300091E+00   5.011100E-01   3.347054E-01   4.082037E-01   6.393572E-01   2.299393E-01   3.013075E-01   1.814651E-01   7.097578E-01   1.195100E+00   1.444608E+00   7.063720E-01   7.722352E-01   7.630152E-01   8.698459E-01   4.828069E-01   9.758392E-01   1.556251E+00   6.368146E-01   3.919032E-01   5.608572E-01   8.640370E-01   6.701506E-01   6.735024E-01   7.859734E-01   1.260997E+00   7.346978E-01   7.068608E-01   4.288772E-01   2.833864E-01   2.862417E-01
   1.037721E+00   8.590915E-01   1.549496E+00   8.706597E-01   8.816434E-01   5.592952E-01   9.160326E-01   6.979982E-01   7.171723E-01   5.819124E-01   1.703800E+00   2.148907E+00   1.161507E+00   4.713998E-01   1.864657E-01   2.047873E-01   1.667615E-01   2.639692E-01   1.287036E+00   6.255331E-01   3.915013E-01   5.599030E-01   1.440534E+00   5.573544E-01   4.567139E-01   1.195828E-01   5.422679E-01   9.345563E-01   1.840160E+00   6.776474E-01   1.006574E+00   1.009258E+00   8.218743E-01   1.067975E+00   1.266635E+00   1.323486E+00   8.239947E-01   8.106969E-01   5.426255E-01   7.480888E-01   5.967287E-01   1.182187E+00   1.784148E+00   1.224722E+00   9.824249E-01   6.424767E-01   5.274055E-01   3.088794E-01   2.604582E-01   3.929268E-01