# LPF package for  MODFLOW-2005, generated by Flopy.
        53    -1E+30         0  
         1
         0
   1.000000E+00
         0
         0
INTERNAL               1  (97E15.6) -1 #hk layer 1                    
   3.938605E-01   4.004682E-01   3.808007E-01   3.721499E-01   3.699054E-01   3.684475E-01   3.683551E-01   3.680445E-01   3.678997E-01   3.678807E-01   3.678798E-01   3.678795E-01   3.678795E-01   3.678795E-01   3.678795E-01   3.678795E-01   3.678795E-01   3.678795E-01   3.678795E-01   3.678797E-01   3.678805E-01   3.678891E-01   3.681046E-01   3.690210E-01   3.811736E-01   3.746242E-01   4.533349E-01   7.340422E-01   9.688079E-01   1.216583E+00   2.644690E+00   2.714719E+00   2.718265E+00   2.718281E+00   2.718282E+00   2.718282E+00   2.718282E+00   2.718282E+00   2.718282E+00   2.718282E+00   2.718282E+00   2.718282E+00   2.718282E+00   2.718282E+00   2.718282E+00   2.718282E+00   2.718282E+00   2.718282E+00   2.718282E+00   2.718282E+00   2.718282E+00   2.718282E+00   2.718282E+00   2.718282E+00   2.718282E+00   2.718282E+00   2.718282E+00   2.718282E+00   2.718282E+00   2.718282E+00   2.718282E+00   2.718282E+00   2.718282E+00   2.718280E+00   2.718281E+00   2.718281E+00   2.718282E+00   2.718282E+00   2.718282E+00   2.718282E+00   2.718282E+00   2.718282E+00   2.718282E+00   2.718282E+00   2.718282E+00   2.718282E+00   2.718282E+00   2.718282E+00   2.718282E+00   2.718282E+00   2.718282E+00   2.718282E+00   2.718282E+00   2.718282E+00   2.718282E+00   2.718282E+00   2.718282E+00   2.718282E+00   2.718282E+00   2.718282E+00   2.718275E+00   2.714374E+00   2.200887E+00   3.685766E-01   3.678820E-01   3.678807E-01   3.678835E-01
   3.718693E-01   3.725289E-01   3.707462E-01   3.688122E-01   3.680210E-01   3.678966E-01   3.678901E-01   3.678840E-01   3.678807E-01   3.678795E-01   3.678795E-01   3.678795E-01   3.678795E-01   3.678795E-01   3.678795E-01   3.678795E-01   3.678798E-01   3.679768E-01   3.929510E-01   1.993249E+00   2.685807E+00   2.715784E+00   2.718266E+00   2.718280E+00   2.718282E+00   2.718282E+00   2.718282E+00   2.718282E+00   2.718282E+00   2.718282E+00   2.718282E+00   2.718282E+00   2.718282E+00   2.718282E+00   2.718282E+00   2.718282E+00   2.718282E+00   2.718282E+00   2.718282E+00   2.718282E+00   2.718282E+00   2.718282E+00   2.718282E+00   2.718282E+00   2.718282E+00   2.718282E+00   2.718282E+00   2.718282E+00   2.718282E+00   2.718282E+00   2.718282E+00   2.718282E+00   2.718282E+00   2.718282E+00   2.718282E+00   2.718282E+00   2.718282E+00   2.718282E+00   2.718282E+00   2.718282E+00   2.718281E+00   2.718281E+00   2.718280E+00   2.718278E+00   2.718281E+00   2.718281E+00   2.718282E+00   2.718282E+00   2.718282E+00   2.718282E+00   2.718282E+00   2.718282E+00   2.718282E+00   2.718282E+00   2.718282E+00   2.718282E+00   2.718282E+00   2.718282E+00   2.718282E+00   2.718282E+00   2.718282E+00   2.718282E+00   2.718282E+00   2.718282E+00   2.718282E+00   2.718282E+00   2.718282E+00   2.718282E+00   2.718282E+00   2.718282E+00   2.718282E+00   2.718282E+00   2.718282E+00   2.718249E+00   2.566296E+00   3.737623E-01   3.691757E-01
   3.689376E-01   3.688506E-01   3.681828E-01   3.679186E-01   3.678987E-01   3.678802E-01   3.678803E-01   3.678795E-01   3.678795E-01   3.678795E-01   3.678795E-01   3.678795E-01   3.678795E-01   3.678795E-01   3.678795E-01   3.681191E-01   3.737017E-01   1.549280E+00   2.717447E+00   2.718282E+00   2.718282E+00   2.718282E+00   2.718282E+00   2.718282E+00   2.718282E+00   2.718282E+00   2.718282E+00   2.718282E+00   2.718282E+00   2.718282E+00   2.718282E+00   2.718282E+00   2.718282E+00   2.718282E+00   2.718282E+00   2.718282E+00   2.718282E+00   2.718282E+00   2.718282E+00   2.718282E+00   2.718282E+00   2.718282E+00   2.718282E+00   2.718282E+00   2.718282E+00   2.718282E+00   2.718282E+00   2.718282E+00   2.718282E+00   2.718282E+00   2.718269E+00   2.708582E+00   1.582882E+00   3.807212E-01   3.693470E-01   3.679947E-01   3.678970E-01   3.678840E-01   3.678824E-01   3.678814E-01   3.678814E-01   3.678813E-01   3.678819E-01   3.678852E-01   3.678827E-01   3.678935E-01   3.678995E-01   3.679057E-01   3.679974E-01   3.683072E-01   3.752883E-01   4.013427E-01   7.048781E-01   2.455309E+00   2.716256E+00   2.718274E+00   2.718282E+00   2.718282E+00   2.718282E+00   2.718282E+00   2.718282E+00   2.718282E+00   2.718282E+00   2.718282E+00   2.718282E+00   2.718282E+00   2.718282E+00   2.718282E+00   2.718282E+00   2.718282E+00   2.718282E+00   2.718282E+00   2.718282E+00   2.718282E+00   2.718282E+00   2.689236E+00   7.344046E-01
   3.681451E-01   3.680382E-01   3.679195E-01   3.679025E-01   3.678821E-01   3.678796E-01   3.678796E-01   3.678795E-01   3.678795E-01   3.678795E-01   3.678795E-01   3.678795E-01   3.678795E-01   3.678796E-01   3.678810E-01   3.725239E-01   1.131916E+00   2.717664E+00   2.718282E+00   2.718282E+00   2.718282E+00   2.718282E+00   2.718282E+00   2.718282E+00   2.718282E+00   2.718282E+00   2.718282E+00   2.718282E+00   2.718282E+00   2.718282E+00   2.718282E+00   2.718282E+00   2.718282E+00   2.718282E+00   2.718282E+00   2.718282E+00   2.718282E+00   2.718282E+00   2.718282E+00   2.718282E+00   2.718282E+00   2.718282E+00   2.718282E+00   2.718282E+00   2.718282E+00   2.718282E+00   2.718282E+00   2.718282E+00   2.718282E+00   2.718278E+00   2.718027E+00   2.695521E+00   2.132046E+00   3.996581E-01   3.689282E-01   3.682369E-01   3.679764E-01   3.678983E-01   3.678842E-01   3.678817E-01   3.678848E-01   3.678828E-01   3.678819E-01   3.678817E-01   3.678835E-01   3.678868E-01   3.679000E-01   3.679137E-01   3.682390E-01   3.689891E-01   3.841002E-01   5.458945E-01   1.875938E+00   2.658295E+00   2.717468E+00   2.718280E+00   2.718282E+00   2.718282E+00   2.718282E+00   2.718282E+00   2.718282E+00   2.718282E+00   2.718282E+00   2.718282E+00   2.718282E+00   2.718282E+00   2.718282E+00   2.718282E+00   2.718282E+00   2.718282E+00   2.718282E+00   2.718282E+00   2.718282E+00   2.718282E+00   2.718282E+00   2.718282E+00   2.718086E+00
   3.679862E-01   3.679064E-01   3.679028E-01   3.678861E-01   3.678811E-01   3.678795E-01   3.678795E-01   3.678795E-01   3.678795E-01   3.678795E-01   3.678795E-01   3.678795E-01   3.678795E-01   3.678814E-01   3.685553E-01   2.673607E+00   2.718269E+00   2.718282E+00   2.718282E+00   2.718282E+00   2.718282E+00   2.718282E+00   2.718282E+00   2.718282E+00   2.718282E+00   2.718282E+00   2.718282E+00   2.718282E+00   2.718282E+00   2.718282E+00   2.718282E+00   2.718282E+00   2.718282E+00   2.718282E+00   2.718282E+00   2.718282E+00   2.718282E+00   2.718282E+00   2.718282E+00   2.718282E+00   2.718282E+00   2.718282E+00   2.718282E+00   2.718282E+00   2.718282E+00   2.718282E+00   2.718282E+00   2.718282E+00   2.718282E+00   2.718282E+00   2.718282E+00   2.718194E+00   2.711949E+00   2.162111E+00   4.413737E-01   3.727936E-01   3.682733E-01   3.679729E-01   3.679032E-01   3.678831E-01   3.678848E-01   3.678817E-01   3.678828E-01   3.678818E-01   3.678818E-01   3.678849E-01   3.680309E-01   3.683185E-01   3.721428E-01   4.285669E-01   1.480144E+00   2.611233E+00   2.716600E+00   2.718177E+00   2.718282E+00   2.718282E+00   2.718282E+00   2.718282E+00   2.718282E+00   2.718282E+00   2.718282E+00   2.718282E+00   2.718282E+00   2.718282E+00   2.718282E+00   2.718282E+00   2.718282E+00   2.718282E+00   2.718282E+00   2.718282E+00   2.718282E+00   2.718282E+00   2.718282E+00   2.718282E+00   2.718282E+00   2.718282E+00   2.718282E+00
   3.678824E-01   3.678821E-01   3.678806E-01   3.678801E-01   3.678795E-01   3.678795E-01   3.678795E-01   3.678795E-01   3.678795E-01   3.678795E-01   3.678795E-01   3.678796E-01   3.678835E-01   4.821317E-01   2.708687E+00   2.718282E+00   2.718282E+00   2.718282E+00   2.718282E+00   2.718282E+00   2.718282E+00   2.718282E+00   2.718282E+00   2.718282E+00   2.718282E+00   2.718282E+00   2.718282E+00   2.718282E+00   2.718282E+00   2.718282E+00   2.718282E+00   2.718282E+00   2.718282E+00   2.718282E+00   2.718282E+00   2.718282E+00   2.718282E+00   2.718282E+00   2.718282E+00   2.718282E+00   2.718282E+00   2.718282E+00   2.718282E+00   2.718282E+00   2.718282E+00   2.718282E+00   2.718282E+00   2.718282E+00   2.718282E+00   2.718164E+00   2.660372E+00   1.003996E+00   3.841683E-01   3.690937E-01   3.679954E-01   3.678847E-01   3.678810E-01   3.678803E-01   3.678799E-01   3.678797E-01   3.678795E-01   3.678795E-01   3.678797E-01   3.678800E-01   3.678800E-01   3.678799E-01   3.678835E-01   3.678939E-01   3.679161E-01   3.681504E-01   3.706607E-01   3.770962E-01   6.280209E-01   1.099922E+00   2.601577E+00   2.717713E+00   2.718170E+00   2.718282E+00   2.718282E+00   2.718282E+00   2.718282E+00   2.718282E+00   2.718282E+00   2.718282E+00   2.718282E+00   2.718282E+00   2.718282E+00   2.718282E+00   2.718282E+00   2.718282E+00   2.718282E+00   2.718282E+00   2.718282E+00   2.718282E+00   2.718282E+00   2.718282E+00   2.718282E+00
   3.678843E-01   3.678817E-01   3.678798E-01   3.678801E-01   3.678795E-01   3.678795E-01   3.678795E-01   3.678795E-01   3.678795E-01   3.678795E-01   3.678795E-01   3.678841E-01   3.681501E-01   1.615731E+00   2.718266E+00   2.718282E+00   2.718282E+00   2.718282E+00   2.718282E+00   2.718282E+00   2.718282E+00   2.718282E+00   2.718282E+00   2.718282E+00   2.718282E+00   2.718282E+00   2.718282E+00   2.718282E+00   2.718282E+00   2.718282E+00   2.718282E+00   2.718282E+00   2.718282E+00   2.718282E+00   2.718282E+00   2.718282E+00   2.718282E+00   2.718282E+00   2.718282E+00   2.718282E+00   2.718282E+00   2.718282E+00   2.718282E+00   2.718282E+00   2.718282E+00   2.718282E+00   2.718282E+00   2.717961E+00   2.615644E+00   5.707238E-01   3.722175E-01   3.684459E-01   3.679258E-01   3.678959E-01   3.678809E-01   3.678800E-01   3.678795E-01   3.678795E-01   3.678795E-01   3.678795E-01   3.678795E-01   3.678795E-01   3.678795E-01   3.678797E-01   3.678797E-01   3.678798E-01   3.678812E-01   3.678822E-01   3.678848E-01   3.679041E-01   3.679741E-01   3.681012E-01   3.695085E-01   3.696512E-01   4.083753E-01   2.359966E+00   1.965159E+00   2.707164E+00   2.717989E+00   2.718279E+00   2.718282E+00   2.718282E+00   2.718282E+00   2.718282E+00   2.718282E+00   2.718282E+00   2.718282E+00   2.718282E+00   2.718282E+00   2.718282E+00   2.718282E+00   2.718282E+00   2.718282E+00   2.718282E+00   2.718282E+00   2.718282E+00   2.718282E+00
   3.678798E-01   3.678796E-01   3.678795E-01   3.678795E-01   3.678795E-01   3.678795E-01   3.678795E-01   3.678795E-01   3.678795E-01   3.678795E-01   3.678795E-01   3.678798E-01   3.679109E-01   5.430512E-01   2.717548E+00   2.718282E+00   2.718282E+00   2.718282E+00   2.718282E+00   2.718282E+00   2.718282E+00   2.718282E+00   2.718282E+00   2.718282E+00   2.718282E+00   2.718282E+00   2.718282E+00   2.718282E+00   2.718282E+00   2.718282E+00   2.718282E+00   2.718282E+00   2.718282E+00   2.718282E+00   2.718282E+00   2.718282E+00   2.718282E+00   2.718282E+00   2.718282E+00   2.718282E+00   2.718282E+00   2.718282E+00   2.718282E+00   2.718266E+00   2.710410E+00   1.394276E+00   3.726800E-01   3.678888E-01   3.678810E-01   3.678812E-01   3.678795E-01   3.678795E-01   3.678795E-01   3.678795E-01   3.678795E-01   3.678795E-01   3.678795E-01   3.678795E-01   3.678795E-01   3.678795E-01   3.678795E-01   3.678795E-01   3.678795E-01   3.678795E-01   3.678795E-01   3.678796E-01   3.678796E-01   3.678797E-01   3.678795E-01   3.678796E-01   3.678796E-01   3.678796E-01   3.678796E-01   3.678795E-01   3.678795E-01   3.678797E-01   3.678797E-01   3.678798E-01   3.678807E-01   3.679008E-01   3.684446E-01   5.349581E-01   2.713051E+00   2.718278E+00   2.718282E+00   2.718282E+00   2.718282E+00   2.718282E+00   2.718282E+00   2.718282E+00   2.718282E+00   2.718282E+00   2.718282E+00   2.718282E+00   2.718282E+00   2.718282E+00   2.718282E+00
   3.678795E-01   3.678795E-01   3.678795E-01   3.678795E-01   3.678795E-01   3.678795E-01   3.678795E-01   3.678795E-01   3.678795E-01   3.678795E-01   3.678795E-01   3.678795E-01   3.678935E-01   3.997522E-01   2.716109E+00   2.718282E+00   2.718282E+00   2.718282E+00   2.718282E+00   2.718282E+00   2.718282E+00   2.718282E+00   2.718282E+00   2.718282E+00   2.718282E+00   2.718282E+00   2.718282E+00   2.718282E+00   2.718282E+00   2.718282E+00   2.718282E+00   2.718282E+00   2.718282E+00   2.718282E+00   2.718282E+00   2.718282E+00   2.718282E+00   2.718282E+00   2.718282E+00   2.718282E+00   2.718208E+00   2.712157E+00   6.257606E-01   3.749785E-01   3.678887E-01   3.678797E-01   3.678795E-01   3.678795E-01   3.678795E-01   3.678795E-01   3.678795E-01   3.678795E-01   3.678795E-01   3.678795E-01   3.678795E-01   3.678795E-01   3.678795E-01   3.678795E-01   3.678795E-01   3.678795E-01   3.678795E-01   3.678795E-01   3.678795E-01   3.678795E-01   3.678795E-01   3.678795E-01   3.678795E-01   3.678795E-01   3.678795E-01   3.678795E-01   3.678795E-01   3.678795E-01   3.678795E-01   3.678795E-01   3.678795E-01   3.678795E-01   3.678795E-01   3.678795E-01   3.678800E-01   3.678799E-01   3.678840E-01   3.679210E-01   3.756619E-01   2.517398E+00   2.715748E+00   2.718282E+00   2.718282E+00   2.718282E+00   2.718282E+00   2.718282E+00   2.718282E+00   2.718282E+00   2.718282E+00   2.718282E+00   2.718282E+00   2.718282E+00   2.718282E+00
   3.678795E-01   3.678795E-01   3.678795E-01   3.678795E-01   3.678795E-01   3.678795E-01   3.678795E-01   3.678795E-01   3.678795E-01   3.678795E-01   3.678795E-01   3.678795E-01   3.679146E-01   1.103536E+00   2.718185E+00   2.718282E+00   2.718282E+00   2.718282E+00   2.718282E+00   2.718282E+00   2.718282E+00   2.718282E+00   2.718282E+00   2.718282E+00   2.718282E+00   2.718282E+00   2.718282E+00   2.718282E+00   2.718282E+00   2.718282E+00   2.718282E+00   2.718282E+00   2.718282E+00   2.718282E+00   2.718282E+00   2.718282E+00   2.718281E+00   2.718072E+00   2.658468E+00   4.602930E-01   3.681063E-01   3.678830E-01   3.678795E-01   3.678795E-01   3.678795E-01   3.678795E-01   3.678795E-01   3.678795E-01   3.678795E-01   3.678795E-01   3.678795E-01   3.678795E-01   3.678795E-01   3.678795E-01   3.678795E-01   3.678795E-01   3.678795E-01   3.678795E-01   3.678795E-01   3.678795E-01   3.678795E-01   3.678795E-01   3.678795E-01   3.678795E-01   3.678795E-01   3.678795E-01   3.678795E-01   3.678795E-01   3.678795E-01   3.678795E-01   3.678795E-01   3.678795E-01   3.678795E-01   3.678795E-01   3.678795E-01   3.678795E-01   3.678795E-01   3.678795E-01   3.678795E-01   3.678795E-01   3.678795E-01   3.678795E-01   3.678795E-01   3.678795E-01   3.678798E-01   3.679491E-01   1.552783E+00   2.062620E+00   2.718023E+00   2.718282E+00   2.718282E+00   2.718282E+00   2.718282E+00   2.718282E+00   2.718282E+00   2.718282E+00   2.718282E+00
   3.678795E-01   3.678795E-01   3.678795E-01   3.678795E-01   3.678795E-01   3.678795E-01   3.678795E-01   3.678795E-01   3.678795E-01   3.678795E-01   3.678795E-01   3.678795E-01   3.679563E-01   5.847511E-01   2.717812E+00   2.718282E+00   2.718282E+00   2.718282E+00   2.718282E+00   2.718282E+00   2.718282E+00   2.718282E+00   2.718282E+00   2.718282E+00   2.718282E+00   2.718282E+00   2.718282E+00   2.718282E+00   2.718282E+00   2.718282E+00   2.718282E+00   2.718282E+00   2.718173E+00   2.664911E+00   9.000349E-01   3.695077E-01   3.678855E-01   3.678795E-01   3.678795E-01   3.678795E-01   3.678795E-01   3.678795E-01   3.678795E-01   3.678795E-01   3.678795E-01   3.678795E-01   3.678795E-01   3.678795E-01   3.678795E-01   3.678795E-01   3.678795E-01   3.678795E-01   3.678795E-01   3.678795E-01   3.678795E-01   3.678795E-01   3.678795E-01   3.678795E-01   3.678795E-01   3.678795E-01   3.678795E-01   3.678796E-01   3.678796E-01   3.678797E-01   3.678797E-01   3.678797E-01   3.678795E-01   3.678795E-01   3.678795E-01   3.678795E-01   3.678795E-01   3.678795E-01   3.678795E-01   3.678795E-01   3.678795E-01   3.678795E-01   3.678795E-01   3.678795E-01   3.678795E-01   3.678795E-01   3.678795E-01   3.678795E-01   3.678795E-01   3.678795E-01   3.678795E-01   3.678795E-01   3.678800E-01   3.678818E-01   3.821433E-01   2.684537E+00   2.718279E+00   2.718282E+00   2.718281E+00   2.718282E+00   2.718282E+00   2.718282E+00   2.718282E+00
   3.678795E-01   3.678795E-01   3.678795E-01   3.678795E-01   3.678795E-01   3.678795E-01   3.678795E-01   3.678795E-01   3.678795E-01   3.678795E-01   3.678795E-01   3.678979E-01   4.984843E-01   2.705295E+00   2.718281E+00   2.718282E+00   2.718282E+00   2.718282E+00   2.718282E+00   2.718282E+00   2.718282E+00   2.718282E+00   2.718282E+00   2.718282E+00   2.718282E+00   2.718282E+00   2.718282E+00   2.718282E+00   2.718282E+00   2.718282E+00   2.718234E+00   2.689282E+00   1.012360E+00   3.681640E-01   3.679088E-01   3.678795E-01   3.678795E-01   3.678795E-01   3.678795E-01   3.678795E-01   3.678795E-01   3.678795E-01   3.678795E-01   3.678795E-01   3.678795E-01   3.678795E-01   3.678795E-01   3.678795E-01   3.678795E-01   3.678795E-01   3.678795E-01   3.678795E-01   3.678795E-01   3.678795E-01   3.678795E-01   3.678795E-01   3.678797E-01   3.678796E-01   3.678797E-01   3.678800E-01   3.678802E-01   3.678801E-01   3.678800E-01   3.678800E-01   3.678800E-01   3.678800E-01   3.678796E-01   3.678795E-01   3.678795E-01   3.678795E-01   3.678795E-01   3.678795E-01   3.678795E-01   3.678795E-01   3.678795E-01   3.678795E-01   3.678795E-01   3.678795E-01   3.678795E-01   3.678795E-01   3.678795E-01   3.678795E-01   3.678795E-01   3.678795E-01   3.678795E-01   3.678795E-01   3.678795E-01   3.678795E-01   3.678795E-01   3.678855E-01   3.887930E-01   2.154858E+00   1.919616E+00   2.718252E+00   2.718282E+00   2.718282E+00   2.718282E+00
   3.678795E-01   3.678795E-01   3.678795E-01   3.678795E-01   3.678795E-01   3.678795E-01   3.678795E-01   3.678795E-01   3.678795E-01   3.678795E-01   3.678795E-01   3.678994E-01   4.878660E-01   2.715796E+00   2.718282E+00   2.718282E+00   2.718282E+00   2.718282E+00   2.718282E+00   2.718282E+00   2.718282E+00   2.718282E+00   2.718282E+00   2.718282E+00   2.718282E+00   2.718282E+00   2.718282E+00   2.718282E+00   2.718259E+00   2.717247E+00   2.659609E+00   4.928552E-01   3.740784E-01   3.678903E-01   3.678797E-01   3.678795E-01   3.678795E-01   3.678795E-01   3.678795E-01   3.678795E-01   3.678795E-01   3.678795E-01   3.678795E-01   3.678795E-01   3.678795E-01   3.678795E-01   3.678795E-01   3.678795E-01   3.678795E-01   3.678795E-01   3.678795E-01   3.678795E-01   3.678796E-01   3.678795E-01   3.678799E-01   3.678803E-01   3.678802E-01   3.678800E-01   3.678801E-01   3.678826E-01   3.678820E-01   3.678817E-01   3.678817E-01   3.678809E-01   3.678815E-01   3.678809E-01   3.678800E-01   3.678799E-01   3.678797E-01   3.678802E-01   3.678796E-01   3.678798E-01   3.678797E-01   3.678797E-01   3.678796E-01   3.678795E-01   3.678795E-01   3.678795E-01   3.678795E-01   3.678795E-01   3.678795E-01   3.678795E-01   3.678795E-01   3.678795E-01   3.678795E-01   3.678795E-01   3.678795E-01   3.678795E-01   3.678795E-01   3.678795E-01   3.680283E-01   3.711633E-01   4.563395E-01   2.683634E+00   2.718245E+00   2.718282E+00   2.718282E+00
   3.678795E-01   3.678795E-01   3.678795E-01   3.678795E-01   3.678795E-01   3.678795E-01   3.678795E-01   3.678795E-01   3.678805E-01   3.744499E-01   3.815658E-01   2.710280E+00   2.718272E+00   2.718282E+00   2.718282E+00   2.718282E+00   2.718282E+00   2.718282E+00   2.718282E+00   2.718282E+00   2.718282E+00   2.718282E+00   2.718282E+00   2.718282E+00   2.718282E+00   2.718223E+00   2.715216E+00   2.389717E+00   5.580577E-01   3.687927E-01   3.680485E-01   3.678809E-01   3.678795E-01   3.678795E-01   3.678795E-01   3.678795E-01   3.678795E-01   3.678795E-01   3.678795E-01   3.678795E-01   3.678795E-01   3.678795E-01   3.678795E-01   3.678795E-01   3.678795E-01   3.678795E-01   3.678795E-01   3.678795E-01   3.678795E-01   3.678796E-01   3.678802E-01   3.678797E-01   3.678799E-01   3.678801E-01   3.678809E-01   3.678822E-01   3.678819E-01   3.678820E-01   3.678820E-01   3.678853E-01   3.678869E-01   3.678822E-01   3.678851E-01   3.678820E-01   3.678837E-01   3.678820E-01   3.678805E-01   3.678813E-01   3.678809E-01   3.678805E-01   3.678799E-01   3.678796E-01   3.678801E-01   3.678798E-01   3.678796E-01   3.678795E-01   3.678795E-01   3.678795E-01   3.678795E-01   3.678795E-01   3.678795E-01   3.678795E-01   3.678795E-01   3.678795E-01   3.678795E-01   3.678795E-01   3.678795E-01   3.678795E-01   3.678795E-01   3.678795E-01   3.678795E-01   3.678795E-01   3.678803E-01   3.686055E-01   4.836968E-01   2.659664E+00   2.691682E+00
   3.678795E-01   3.678795E-01   3.678795E-01   3.678795E-01   3.678795E-01   3.678795E-01   3.678795E-01   3.678800E-01   3.733110E-01   2.664434E+00   2.714460E+00   2.718282E+00   2.718282E+00   2.718282E+00   2.718282E+00   2.718282E+00   2.718282E+00   2.718282E+00   2.718282E+00   2.718282E+00   2.718282E+00   2.718282E+00   2.718282E+00   2.718282E+00   2.718282E+00   2.718245E+00   2.709077E+00   1.938842E+00   4.473201E-01   3.700808E-01   3.681712E-01   3.678896E-01   3.678796E-01   3.678795E-01   3.678795E-01   3.678795E-01   3.678795E-01   3.678795E-01   3.678795E-01   3.678795E-01   3.678795E-01   3.678795E-01   3.678795E-01   3.678795E-01   3.678795E-01   3.678795E-01   3.678800E-01   3.678801E-01   3.678803E-01   3.678802E-01   3.678820E-01   3.678819E-01   3.678830E-01   3.678816E-01   3.678853E-01   3.678866E-01   3.678915E-01   3.678840E-01   3.678869E-01   3.678873E-01   3.678911E-01   3.678856E-01   3.678896E-01   3.678858E-01   3.678839E-01   3.678832E-01   3.678823E-01   3.678825E-01   3.678820E-01   3.678808E-01   3.678802E-01   3.678799E-01   3.678800E-01   3.678798E-01   3.678797E-01   3.678795E-01   3.678796E-01   3.678795E-01   3.678795E-01   3.678795E-01   3.678795E-01   3.678795E-01   3.678795E-01   3.678795E-01   3.678795E-01   3.678795E-01   3.678795E-01   3.678795E-01   3.678795E-01   3.678795E-01   3.678795E-01   3.678795E-01   3.678807E-01   3.679589E-01   3.698237E-01   1.638506E+00   2.571467E+00
   3.678795E-01   3.678795E-01   3.678795E-01   3.678795E-01   3.678795E-01   3.678795E-01   3.678839E-01   3.897042E-01   2.657125E+00   2.718262E+00   2.718280E+00   2.718282E+00   2.718282E+00   2.718282E+00   2.718282E+00   2.718282E+00   2.718282E+00   2.718282E+00   2.718282E+00   2.718282E+00   2.718282E+00   2.718274E+00   2.717960E+00   2.464178E+00   1.193977E+00   3.690720E-01   3.679279E-01   3.678816E-01   3.678795E-01   3.678795E-01   3.678795E-01   3.678795E-01   3.678795E-01   3.678795E-01   3.678795E-01   3.678795E-01   3.678795E-01   3.678795E-01   3.678795E-01   3.678795E-01   3.678795E-01   3.678795E-01   3.678795E-01   3.678795E-01   3.678796E-01   3.678795E-01   3.678805E-01   3.678812E-01   3.678806E-01   3.678818E-01   3.678858E-01   3.678873E-01   3.678847E-01   3.678820E-01   3.678845E-01   3.679042E-01   3.678918E-01   3.678844E-01   3.678864E-01   3.678910E-01   3.678952E-01   3.678864E-01   3.678890E-01   3.678844E-01   3.678832E-01   3.678831E-01   3.678832E-01   3.678834E-01   3.678824E-01   3.678819E-01   3.678804E-01   3.678807E-01   3.678812E-01   3.678803E-01   3.678797E-01   3.678795E-01   3.678795E-01   3.678795E-01   3.678795E-01   3.678795E-01   3.678795E-01   3.678795E-01   3.678795E-01   3.678795E-01   3.678795E-01   3.678795E-01   3.678795E-01   3.678795E-01   3.678795E-01   3.678795E-01   3.678795E-01   3.678795E-01   3.678795E-01   3.678795E-01   3.678801E-01   3.679951E-01   3.690578E-01
   3.678795E-01   3.678795E-01   3.678795E-01   3.678795E-01   3.678796E-01   3.678798E-01   3.681851E-01   2.156709E+00   2.717680E+00   2.718281E+00   2.718282E+00   2.718282E+00   2.718282E+00   2.718282E+00   2.718282E+00   2.718282E+00   2.718282E+00   2.718282E+00   2.718282E+00   2.718282E+00   2.718242E+00   2.718098E+00   2.665842E+00   1.826181E+00   4.109952E-01   3.682937E-01   3.678857E-01   3.678802E-01   3.678795E-01   3.678795E-01   3.678795E-01   3.678795E-01   3.678795E-01   3.678795E-01   3.678795E-01   3.678795E-01   3.678795E-01   3.678795E-01   3.678795E-01   3.678795E-01   3.678795E-01   3.678795E-01   3.678795E-01   3.678796E-01   3.678800E-01   3.678797E-01   3.678802E-01   3.678802E-01   3.678800E-01   3.678800E-01   3.678798E-01   3.678801E-01   3.678802E-01   3.678799E-01   3.678799E-01   3.678800E-01   3.678803E-01   3.678800E-01   3.678797E-01   3.678798E-01   3.678800E-01   3.678797E-01   3.678799E-01   3.678797E-01   3.678798E-01   3.678800E-01   3.678801E-01   3.678803E-01   3.678800E-01   3.678800E-01   3.678798E-01   3.678798E-01   3.678799E-01   3.678798E-01   3.678795E-01   3.678795E-01   3.678795E-01   3.678795E-01   3.678795E-01   3.678795E-01   3.678796E-01   3.678795E-01   3.678795E-01   3.678795E-01   3.678795E-01   3.678795E-01   3.678795E-01   3.678795E-01   3.678795E-01   3.678795E-01   3.678795E-01   3.678795E-01   3.678795E-01   3.678795E-01   3.678795E-01   3.679166E-01   3.679850E-01
   3.678809E-01   3.678978E-01   3.685862E-01   4.986098E-01   2.469825E+00   2.717209E+00   2.718274E+00   2.718282E+00   2.718282E+00   2.718282E+00   2.718282E+00   2.718282E+00   2.718282E+00   2.718282E+00   2.718282E+00   2.718282E+00   2.718282E+00   2.718282E+00   2.718278E+00   2.712528E+00   2.162020E+00   5.314847E-01   3.690672E-01   3.678939E-01   3.678796E-01   3.678795E-01   3.678795E-01   3.678795E-01   3.678795E-01   3.678795E-01   3.678795E-01   3.678795E-01   3.678795E-01   3.678795E-01   3.678795E-01   3.678795E-01   3.678795E-01   3.678795E-01   3.678795E-01   3.678795E-01   3.678795E-01   3.678795E-01   3.678796E-01   3.678795E-01   3.678795E-01   3.678799E-01   3.678805E-01   3.678840E-01   3.678823E-01   3.678806E-01   3.678809E-01   3.678830E-01   3.678817E-01   3.678821E-01   3.678805E-01   3.678804E-01   3.678801E-01   3.678800E-01   3.678798E-01   3.678799E-01   3.678797E-01   3.678797E-01   3.678797E-01   3.678797E-01   3.678798E-01   3.678798E-01   3.678798E-01   3.678799E-01   3.678802E-01   3.678798E-01   3.678800E-01   3.678798E-01   3.678797E-01   3.678800E-01   3.678796E-01   3.678796E-01   3.678795E-01   3.678795E-01   3.678795E-01   3.678795E-01   3.678797E-01   3.678795E-01   3.678795E-01   3.678795E-01   3.678795E-01   3.678795E-01   3.678795E-01   3.678795E-01   3.678795E-01   3.678795E-01   3.678795E-01   3.678795E-01   3.678795E-01   3.678795E-01   3.678795E-01   3.678795E-01   3.678795E-01
   3.742059E-01   9.735295E-01   2.715359E+00   2.718281E+00   2.718282E+00   2.718282E+00   2.718282E+00   2.718282E+00   2.718282E+00   2.718282E+00   2.718282E+00   2.718282E+00   2.718282E+00   2.718282E+00   2.718282E+00   2.718282E+00   2.718282E+00   2.718279E+00   2.717733E+00   2.531255E+00   5.037815E-01   3.727282E-01   3.679357E-01   3.678827E-01   3.678795E-01   3.678795E-01   3.678795E-01   3.678795E-01   3.678795E-01   3.678795E-01   3.678795E-01   3.678795E-01   3.678795E-01   3.678795E-01   3.678795E-01   3.678795E-01   3.678795E-01   3.678795E-01   3.678795E-01   3.678795E-01   3.678795E-01   3.678796E-01   3.678796E-01   3.678797E-01   3.678796E-01   3.678796E-01   3.678799E-01   3.678800E-01   3.678800E-01   3.678801E-01   3.678797E-01   3.678798E-01   3.678797E-01   3.678797E-01   3.678799E-01   3.678798E-01   3.678801E-01   3.678798E-01   3.678798E-01   3.678801E-01   3.678798E-01   3.678797E-01   3.678798E-01   3.678800E-01   3.678799E-01   3.678798E-01   3.678802E-01   3.678802E-01   3.678801E-01   3.678798E-01   3.678799E-01   3.678801E-01   3.678797E-01   3.678798E-01   3.678796E-01   3.678796E-01   3.678796E-01   3.678795E-01   3.678795E-01   3.678795E-01   3.678797E-01   3.678811E-01   3.678798E-01   3.678795E-01   3.678796E-01   3.678795E-01   3.678795E-01   3.678795E-01   3.678795E-01   3.678795E-01   3.678795E-01   3.678795E-01   3.678795E-01   3.678795E-01   3.678795E-01   3.678795E-01   3.678795E-01
   2.695678E+00   2.717431E+00   2.718282E+00   2.718282E+00   2.718282E+00   2.718282E+00   2.718282E+00   2.718282E+00   2.718282E+00   2.718282E+00   2.718282E+00   2.718282E+00   2.718282E+00   2.718282E+00   2.718282E+00   2.718282E+00   2.718220E+00   2.277380E+00   3.777122E-01   3.679256E-01   3.678798E-01   3.678795E-01   3.678795E-01   3.678795E-01   3.678795E-01   3.678795E-01   3.678795E-01   3.678795E-01   3.678795E-01   3.678795E-01   3.678795E-01   3.678795E-01   3.678795E-01   3.678795E-01   3.678795E-01   3.678795E-01   3.678795E-01   3.678795E-01   3.678795E-01   3.678797E-01   3.678804E-01   3.678799E-01   3.678800E-01   3.678802E-01   3.678802E-01   3.678834E-01   3.678804E-01   3.678807E-01   3.678817E-01   3.678803E-01   3.678828E-01   3.678810E-01   3.678803E-01   3.678818E-01   3.678801E-01   3.678812E-01   3.678807E-01   3.678800E-01   3.678813E-01   3.678801E-01   3.678803E-01   3.678802E-01   3.678800E-01   3.678803E-01   3.678802E-01   3.678802E-01   3.678809E-01   3.678805E-01   3.678807E-01   3.678803E-01   3.678803E-01   3.678806E-01   3.678799E-01   3.678799E-01   3.678799E-01   3.678797E-01   3.678796E-01   3.678795E-01   3.678795E-01   3.678795E-01   3.678796E-01   3.678800E-01   3.678795E-01   3.678795E-01   3.678795E-01   3.678795E-01   3.678795E-01   3.678795E-01   3.678795E-01   3.678795E-01   3.678795E-01   3.678795E-01   3.678795E-01   3.678795E-01   3.678795E-01   3.678795E-01   3.678795E-01