# LPF package for  MODFLOW-2005, generated by Flopy.
        53    -1E+30         0  
         1
         0
   1.000000E+00
         0
         0
INTERNAL               1  (97E15.6) -1 #hk layer 1                    
   3.678795E-01   3.678795E-01   3.678795E-01   3.678795E-01   3.678795E-01   3.678795E-01   3.678795E-01   3.678795E-01   3.678795E-01   3.678795E-01   3.678795E-01   3.678795E-01   3.678795E-01   3.678795E-01   3.678795E-01   3.678795E-01   3.678795E-01   3.678795E-01   3.678795E-01   3.678795E-01   3.678795E-01   3.678795E-01   3.678795E-01   3.678795E-01   3.678795E-01   3.678795E-01   3.678795E-01   3.678795E-01   3.678795E-01   3.678795E-01   3.678795E-01   3.678795E-01   3.678795E-01   3.678795E-01   3.678795E-01   3.678796E-01   3.678796E-01   3.678848E-01   3.679210E-01   3.679241E-01   3.680418E-01   3.679096E-01   3.678881E-01   3.678824E-01   3.678795E-01   3.678795E-01   3.678795E-01   3.678795E-01   3.678795E-01   3.678795E-01   3.678795E-01   3.678795E-01   3.678795E-01   3.678795E-01   3.678795E-01   3.678795E-01   3.678795E-01   3.678795E-01   3.678795E-01   3.678795E-01   3.678795E-01   3.678795E-01   3.678795E-01   3.678795E-01   3.678795E-01   3.678795E-01   3.678795E-01   3.678795E-01   3.678795E-01   3.678795E-01   3.678795E-01   3.678795E-01   3.678795E-01   3.678795E-01   3.678795E-01   3.678795E-01   3.678795E-01   3.678795E-01   3.678795E-01   3.678795E-01   3.678795E-01   3.678795E-01   3.678795E-01   3.678795E-01   3.678795E-01   3.678795E-01   3.678795E-01   3.678795E-01   3.678795E-01   3.678795E-01   3.678795E-01   3.678795E-01   3.678795E-01   3.678795E-01   3.678795E-01   3.678795E-01   3.678817E-01
   4.026265E-01   5.370474E-01   2.150101E+00   2.674458E+00   2.709202E+00   2.718274E+00   2.718240E+00   2.718281E+00   2.718232E+00   2.718276E+00   2.718282E+00   2.718282E+00   2.718282E+00   2.718275E+00   2.718281E+00   2.718253E+00   2.718255E+00   2.718201E+00   2.718264E+00   2.718258E+00   2.718147E+00   2.718181E+00   2.718082E+00   2.718225E+00   2.718124E+00   2.718126E+00   2.718071E+00   2.718212E+00   2.718229E+00   2.718177E+00   2.718278E+00   2.718281E+00   2.718282E+00   2.718282E+00   2.718282E+00   2.718282E+00   2.718282E+00   2.718282E+00   2.718282E+00   2.718282E+00   2.718282E+00   2.718282E+00   2.718282E+00   2.718282E+00   2.718282E+00   2.718282E+00   2.718282E+00   2.718282E+00   2.718282E+00   2.718282E+00   2.718282E+00   2.718282E+00   2.718170E+00   2.717718E+00   2.702223E+00   7.815935E-01   3.707042E-01   3.678892E-01   3.678796E-01   3.678795E-01   3.678795E-01   3.678795E-01   3.678795E-01   3.678795E-01   3.678795E-01   3.678795E-01   3.678795E-01   3.678795E-01   3.678795E-01   3.678795E-01   3.678795E-01   3.678795E-01   3.678795E-01   3.678795E-01   3.678795E-01   3.678795E-01   3.678795E-01   3.678795E-01   3.678795E-01   3.678795E-01   3.678795E-01   3.678795E-01   3.678795E-01   3.678795E-01   3.678795E-01   3.678795E-01   3.678795E-01   3.678795E-01   3.678795E-01   3.678795E-01   3.678795E-01   3.678795E-01   3.678795E-01   3.678795E-01   3.678795E-01   3.678795E-01   3.678819E-01
   2.717924E+00   2.718282E+00   2.718282E+00   2.718282E+00   2.718282E+00   2.718282E+00   2.718282E+00   2.718282E+00   2.718282E+00   2.718282E+00   2.718282E+00   2.718282E+00   2.718282E+00   2.718282E+00   2.718282E+00   2.718282E+00   2.718282E+00   2.718282E+00   2.718282E+00   2.718282E+00   2.718282E+00   2.718282E+00   2.718282E+00   2.718282E+00   2.718282E+00   2.718282E+00   2.718282E+00   2.718282E+00   2.718282E+00   2.718282E+00   2.718282E+00   2.718282E+00   2.718282E+00   2.718282E+00   2.718282E+00   2.718282E+00   2.718282E+00   2.718282E+00   2.718282E+00   2.718282E+00   2.718282E+00   2.718282E+00   2.718282E+00   2.718282E+00   2.718282E+00   2.718282E+00   2.718282E+00   2.718282E+00   2.718282E+00   2.718282E+00   2.718282E+00   2.718282E+00   2.718282E+00   2.718282E+00   2.718282E+00   2.718282E+00   2.718277E+00   2.717591E+00   2.056506E+00   3.715126E-01   3.678797E-01   3.678795E-01   3.678795E-01   3.678795E-01   3.678795E-01   3.678795E-01   3.678795E-01   3.678795E-01   3.678795E-01   3.678795E-01   3.678795E-01   3.678795E-01   3.678795E-01   3.678795E-01   3.678795E-01   3.678795E-01   3.678795E-01   3.678795E-01   3.678795E-01   3.678795E-01   3.678795E-01   3.678795E-01   3.678795E-01   3.678795E-01   3.678795E-01   3.678795E-01   3.678795E-01   3.678795E-01   3.678795E-01   3.678795E-01   3.678795E-01   3.678795E-01   3.678795E-01   3.678795E-01   3.678795E-01   3.678795E-01   3.678795E-01
   2.718282E+00   2.718282E+00   2.718282E+00   2.718282E+00   2.718282E+00   2.718282E+00   2.718282E+00   2.718282E+00   2.718282E+00   2.718282E+00   2.718282E+00   2.718282E+00   2.718282E+00   2.718282E+00   2.718282E+00   2.718282E+00   2.718282E+00   2.718282E+00   2.718282E+00   2.718282E+00   2.718282E+00   2.718282E+00   2.718282E+00   2.718282E+00   2.718282E+00   2.718282E+00   2.718282E+00   2.718282E+00   2.718282E+00   2.718282E+00   2.718282E+00   2.718282E+00   2.718282E+00   2.718282E+00   2.718282E+00   2.718282E+00   2.718282E+00   2.718282E+00   2.718282E+00   2.718282E+00   2.718282E+00   2.718282E+00   2.718282E+00   2.718282E+00   2.718282E+00   2.718282E+00   2.718282E+00   2.718282E+00   2.718282E+00   2.718282E+00   2.718282E+00   2.718282E+00   2.718282E+00   2.718282E+00   2.718282E+00   2.718282E+00   2.718282E+00   2.718282E+00   2.718282E+00   2.718282E+00   2.718282E+00   2.718282E+00   2.718282E+00   2.718280E+00   2.716588E+00   1.603569E+00   1.052024E+00   3.718627E-01   3.683136E-01   3.679057E-01   3.678837E-01   3.678878E-01   3.678840E-01   3.678826E-01   3.678837E-01   3.678803E-01   3.678796E-01   3.678795E-01   3.678795E-01   3.678795E-01   3.678795E-01   3.678795E-01   3.678795E-01   3.678795E-01   3.678795E-01   3.678795E-01   3.678795E-01   3.678795E-01   3.678795E-01   3.678795E-01   3.678795E-01   3.678795E-01   3.678795E-01   3.678795E-01   3.678795E-01   3.678795E-01   3.678795E-01
   2.718282E+00   2.718282E+00   2.718282E+00   2.718282E+00   2.718282E+00   2.718282E+00   2.718282E+00   2.718282E+00   2.718282E+00   2.718282E+00   2.718282E+00   2.718282E+00   2.718282E+00   2.718282E+00   2.718282E+00   2.718282E+00   2.718282E+00   2.718282E+00   2.718282E+00   2.718282E+00   2.718282E+00   2.718282E+00   2.718282E+00   2.718282E+00   2.718282E+00   2.718282E+00   2.718282E+00   2.718282E+00   2.718282E+00   2.718282E+00   2.718282E+00   2.718282E+00   2.718282E+00   2.718282E+00   2.718282E+00   2.718282E+00   2.718282E+00   2.718282E+00   2.718282E+00   2.718282E+00   2.718282E+00   2.718282E+00   2.718282E+00   2.718282E+00   2.718282E+00   2.718282E+00   2.718282E+00   2.718282E+00   2.718282E+00   2.718282E+00   2.718282E+00   2.718282E+00   2.718282E+00   2.718282E+00   2.718282E+00   2.718282E+00   2.718282E+00   2.718282E+00   2.718282E+00   2.718282E+00   2.718282E+00   2.718282E+00   2.718282E+00   2.718282E+00   2.718282E+00   2.718282E+00   2.718282E+00   2.718282E+00   2.718282E+00   2.718279E+00   2.718244E+00   2.718256E+00   2.718280E+00   2.718278E+00   2.717628E+00   2.693500E+00   2.625313E+00   2.315017E+00   2.245448E+00   4.664230E-01   3.717397E-01   3.678803E-01   3.678795E-01   3.678795E-01   3.678795E-01   3.678795E-01   3.678795E-01   3.678795E-01   3.678795E-01   3.678795E-01   3.678795E-01   3.678795E-01   3.678795E-01   3.678795E-01   3.678795E-01   3.678795E-01   3.678795E-01
   2.718282E+00   2.718282E+00   2.718282E+00   2.718282E+00   2.718282E+00   2.718282E+00   2.718282E+00   2.718282E+00   2.718282E+00   2.718282E+00   2.718282E+00   2.718282E+00   2.718282E+00   2.718282E+00   2.718282E+00   2.718282E+00   2.718282E+00   2.718282E+00   2.718282E+00   2.718282E+00   2.718282E+00   2.718282E+00   2.718282E+00   2.718282E+00   2.718282E+00   2.718282E+00   2.718282E+00   2.718282E+00   2.718282E+00   2.718282E+00   2.718282E+00   2.718282E+00   2.718282E+00   2.718282E+00   2.718282E+00   2.718282E+00   2.718282E+00   2.718282E+00   2.718282E+00   2.718282E+00   2.718282E+00   2.718282E+00   2.718282E+00   2.718282E+00   2.718282E+00   2.718282E+00   2.718282E+00   2.718282E+00   2.718282E+00   2.718282E+00   2.718282E+00   2.718282E+00   2.718282E+00   2.718282E+00   2.718282E+00   2.718282E+00   2.718282E+00   2.718282E+00   2.718282E+00   2.718282E+00   2.718282E+00   2.718282E+00   2.718282E+00   2.718282E+00   2.718282E+00   2.718282E+00   2.718282E+00   2.718282E+00   2.718282E+00   2.718282E+00   2.718282E+00   2.718282E+00   2.718282E+00   2.718282E+00   2.718282E+00   2.718282E+00   2.718282E+00   2.718282E+00   2.718282E+00   2.718282E+00   2.718282E+00   2.718282E+00   2.718282E+00   2.718282E+00   2.718282E+00   2.718282E+00   2.717662E+00   1.185639E+00   3.693617E-01   3.678799E-01   3.678795E-01   3.678795E-01   3.678795E-01   3.678795E-01   3.678795E-01   3.678795E-01   3.678795E-01
   2.718282E+00   2.718282E+00   2.718282E+00   2.718282E+00   2.718282E+00   2.718282E+00   2.718282E+00   2.718282E+00   2.718282E+00   2.718282E+00   2.718282E+00   2.718282E+00   2.718282E+00   2.718282E+00   2.718282E+00   2.718282E+00   2.718282E+00   2.718282E+00   2.718282E+00   2.718282E+00   2.718282E+00   2.718282E+00   2.718282E+00   2.718282E+00   2.718282E+00   2.718282E+00   2.718282E+00   2.718282E+00   2.718282E+00   2.718282E+00   2.718282E+00   2.718282E+00   2.718282E+00   2.718282E+00   2.718282E+00   2.718282E+00   2.718282E+00   2.718282E+00   2.718282E+00   2.718282E+00   2.718282E+00   2.718282E+00   2.718282E+00   2.718282E+00   2.718282E+00   2.718282E+00   2.718282E+00   2.718282E+00   2.718282E+00   2.718282E+00   2.718282E+00   2.718282E+00   2.718282E+00   2.718282E+00   2.718282E+00   2.718282E+00   2.718282E+00   2.718282E+00   2.718282E+00   2.718282E+00   2.718282E+00   2.718282E+00   2.718282E+00   2.718282E+00   2.718282E+00   2.718282E+00   2.718282E+00   2.718282E+00   2.718282E+00   2.718282E+00   2.718282E+00   2.718282E+00   2.718282E+00   2.718282E+00   2.718282E+00   2.718282E+00   2.718282E+00   2.718282E+00   2.718282E+00   2.718282E+00   2.718282E+00   2.718282E+00   2.718282E+00   2.718282E+00   2.718282E+00   2.718282E+00   2.718264E+00   2.696687E+00   3.983721E-01   3.678809E-01   3.678795E-01   3.678795E-01   3.678795E-01   3.678795E-01   3.678795E-01   3.678795E-01   3.678795E-01
   2.718282E+00   2.718282E+00   2.718282E+00   2.718282E+00   2.718282E+00   2.718282E+00   2.718282E+00   2.718282E+00   2.718282E+00   2.718282E+00   2.718282E+00   2.718282E+00   2.718282E+00   2.718282E+00   2.718282E+00   2.718282E+00   2.718282E+00   2.718282E+00   2.718282E+00   2.718282E+00   2.718282E+00   2.718282E+00   2.718282E+00   2.718282E+00   2.718282E+00   2.718282E+00   2.718282E+00   2.718282E+00   2.718282E+00   2.718282E+00   2.718282E+00   2.718282E+00   2.718282E+00   2.718282E+00   2.718282E+00   2.718282E+00   2.718282E+00   2.718282E+00   2.718282E+00   2.718282E+00   2.718282E+00   2.718282E+00   2.718282E+00   2.718282E+00   2.718282E+00   2.718282E+00   2.718282E+00   2.718282E+00   2.718282E+00   2.718282E+00   2.718282E+00   2.718282E+00   2.718282E+00   2.718282E+00   2.718282E+00   2.718282E+00   2.718282E+00   2.718282E+00   2.718282E+00   2.718282E+00   2.718282E+00   2.718282E+00   2.718282E+00   2.718282E+00   2.718282E+00   2.718282E+00   2.718282E+00   2.718282E+00   2.718282E+00   2.718282E+00   2.718282E+00   2.718282E+00   2.718282E+00   2.718282E+00   2.718282E+00   2.718282E+00   2.718282E+00   2.718282E+00   2.718282E+00   2.718282E+00   2.718282E+00   2.718282E+00   2.718282E+00   2.718282E+00   2.718282E+00   2.718282E+00   2.718282E+00   2.718282E+00   2.718282E+00   2.718259E+00   2.707516E+00   3.685612E-01   3.678804E-01   3.678795E-01   3.678795E-01   3.678795E-01   3.678795E-01
   2.718282E+00   2.718282E+00   2.718282E+00   2.718282E+00   2.718282E+00   2.718282E+00   2.718282E+00   2.718282E+00   2.718282E+00   2.718282E+00   2.718282E+00   2.718282E+00   2.718282E+00   2.718282E+00   2.718282E+00   2.718282E+00   2.718282E+00   2.718282E+00   2.718282E+00   2.718282E+00   2.718282E+00   2.718282E+00   2.718282E+00   2.718282E+00   2.718282E+00   2.718282E+00   2.718282E+00   2.718282E+00   2.718282E+00   2.718282E+00   2.718282E+00   2.718282E+00   2.718282E+00   2.718282E+00   2.718282E+00   2.718282E+00   2.718282E+00   2.718282E+00   2.718282E+00   2.718282E+00   2.718282E+00   2.718282E+00   2.718282E+00   2.718282E+00   2.718282E+00   2.718282E+00   2.718282E+00   2.718282E+00   2.718282E+00   2.718282E+00   2.718282E+00   2.718282E+00   2.718282E+00   2.718282E+00   2.718282E+00   2.718282E+00   2.718282E+00   2.718282E+00   2.718282E+00   2.718282E+00   2.718282E+00   2.718282E+00   2.718282E+00   2.718282E+00   2.718282E+00   2.718282E+00   2.718282E+00   2.718282E+00   2.718282E+00   2.718282E+00   2.718282E+00   2.718282E+00   2.718282E+00   2.718282E+00   2.718282E+00   2.718282E+00   2.718282E+00   2.718282E+00   2.718282E+00   2.718282E+00   2.718282E+00   2.718282E+00   2.718282E+00   2.718282E+00   2.718282E+00   2.718282E+00   2.718282E+00   2.718282E+00   2.718282E+00   2.718282E+00   2.718282E+00   2.718282E+00   2.700203E+00   3.694090E-01   3.678795E-01   3.678795E-01   3.678795E-01
   2.718282E+00   2.718282E+00   2.718282E+00   2.718282E+00   2.718282E+00   2.718282E+00   2.718282E+00   2.718282E+00   2.718282E+00   2.718282E+00   2.718282E+00   2.718282E+00   2.718282E+00   2.718282E+00   2.718282E+00   2.718282E+00   2.718282E+00   2.718282E+00   2.718282E+00   2.718282E+00   2.718282E+00   2.718282E+00   2.718282E+00   2.718282E+00   2.718282E+00   2.718282E+00   2.718282E+00   2.718282E+00   2.718282E+00   2.718282E+00   2.718282E+00   2.718282E+00   2.718282E+00   2.718282E+00   2.718282E+00   2.718282E+00   2.718282E+00   2.718282E+00   2.718282E+00   2.718282E+00   2.718282E+00   2.718282E+00   2.718282E+00   2.718282E+00   2.718282E+00   2.718282E+00   2.718282E+00   2.718282E+00   2.718282E+00   2.718282E+00   2.718282E+00   2.718282E+00   2.718282E+00   2.718282E+00   2.718282E+00   2.718282E+00   2.718282E+00   2.718282E+00   2.718282E+00   2.718282E+00   2.718282E+00   2.718282E+00   2.718282E+00   2.718282E+00   2.718282E+00   2.718282E+00   2.718282E+00   2.718282E+00   2.718282E+00   2.718282E+00   2.718282E+00   2.718282E+00   2.718282E+00   2.718282E+00   2.718282E+00   2.718282E+00   2.718282E+00   2.718282E+00   2.718282E+00   2.718282E+00   2.718282E+00   2.718282E+00   2.718282E+00   2.718282E+00   2.718282E+00   2.718282E+00   2.718282E+00   2.718282E+00   2.718282E+00   2.718282E+00   2.718282E+00   2.718282E+00   2.718282E+00   2.718282E+00   2.707105E+00   3.683415E-01   3.678923E-01
   2.718282E+00   2.718282E+00   2.718282E+00   2.718282E+00   2.718282E+00   2.718282E+00   2.718282E+00   2.718282E+00   2.718282E+00   2.718282E+00   2.718282E+00   2.718282E+00   2.718282E+00   2.718282E+00   2.718282E+00   2.718282E+00   2.718282E+00   2.718282E+00   2.718282E+00   2.718282E+00   2.718282E+00   2.718282E+00   2.718282E+00   2.718282E+00   2.718282E+00   2.718282E+00   2.718282E+00   2.718282E+00   2.718282E+00   2.718282E+00   2.718282E+00   2.718282E+00   2.718282E+00   2.718281E+00   2.718277E+00   2.718122E+00   2.717875E+00   2.716678E+00   2.715575E+00   2.714021E+00   2.691929E+00   2.717634E+00   2.718210E+00   2.718195E+00   2.718274E+00   2.718282E+00   2.718282E+00   2.718282E+00   2.718282E+00   2.718282E+00   2.718282E+00   2.718282E+00   2.718282E+00   2.718282E+00   2.718282E+00   2.718282E+00   2.718282E+00   2.718282E+00   2.718282E+00   2.718282E+00   2.718282E+00   2.718282E+00   2.718282E+00   2.718282E+00   2.718282E+00   2.718282E+00   2.718282E+00   2.718282E+00   2.718282E+00   2.718282E+00   2.718282E+00   2.718282E+00   2.718282E+00   2.718282E+00   2.718282E+00   2.718282E+00   2.718282E+00   2.718282E+00   2.718282E+00   2.718282E+00   2.718282E+00   2.718282E+00   2.718282E+00   2.718282E+00   2.718282E+00   2.718282E+00   2.718282E+00   2.718282E+00   2.718282E+00   2.718282E+00   2.718282E+00   2.718282E+00   2.718282E+00   2.718282E+00   2.718282E+00   2.717989E+00   1.013189E+00
   2.701908E+00   2.628819E+00   2.706269E+00   2.416240E+00   6.374280E-01   1.911716E+00   3.920836E-01   3.686295E-01   3.685386E-01   3.678980E-01   3.678878E-01   3.678796E-01   3.678800E-01   3.678797E-01   3.678795E-01   3.678807E-01   3.678806E-01   3.678798E-01   3.678795E-01   3.678795E-01   3.678839E-01   3.679444E-01   3.679836E-01   3.678860E-01   3.679215E-01   3.679310E-01   3.680373E-01   3.678985E-01   3.678866E-01   3.678811E-01   3.678798E-01   3.678796E-01   3.678795E-01   3.678795E-01   3.678795E-01   3.678795E-01   3.678795E-01   3.678795E-01   3.678795E-01   3.678795E-01   3.678795E-01   3.678795E-01   3.678795E-01   3.678795E-01   3.678795E-01   3.678795E-01   3.678795E-01   3.678795E-01   3.678795E-01   3.678795E-01   3.678804E-01   3.678946E-01   3.817273E-01   1.367737E+00   2.696252E+00   2.718070E+00   2.718281E+00   2.718282E+00   2.718282E+00   2.718282E+00   2.718282E+00   2.718282E+00   2.718282E+00   2.718282E+00   2.718282E+00   2.718282E+00   2.718282E+00   2.718282E+00   2.718282E+00   2.718282E+00   2.718282E+00   2.718282E+00   2.718282E+00   2.718282E+00   2.718282E+00   2.718282E+00   2.718282E+00   2.718282E+00   2.718282E+00   2.718282E+00   2.718282E+00   2.718282E+00   2.718282E+00   2.718282E+00   2.718282E+00   2.718282E+00   2.718282E+00   2.718282E+00   2.718282E+00   2.718282E+00   2.718282E+00   2.718282E+00   2.718282E+00   2.718282E+00   2.718282E+00   2.718282E+00   2.717828E+00
   2.690633E+00   4.577871E-01   4.659719E-01   3.732201E-01   3.680127E-01   3.682659E-01   3.678818E-01   3.678795E-01   3.678795E-01   3.678795E-01   3.678795E-01   3.678795E-01   3.678795E-01   3.678795E-01   3.678795E-01   3.678795E-01   3.678795E-01   3.678795E-01   3.678795E-01   3.678795E-01   3.678795E-01   3.678795E-01   3.678795E-01   3.678795E-01   3.678795E-01   3.678795E-01   3.678795E-01   3.678795E-01   3.678795E-01   3.678795E-01   3.678795E-01   3.678795E-01   3.678795E-01   3.678795E-01   3.678795E-01   3.678795E-01   3.678795E-01   3.678795E-01   3.678795E-01   3.678795E-01   3.678795E-01   3.678795E-01   3.678795E-01   3.678795E-01   3.678795E-01   3.678795E-01   3.678795E-01   3.678795E-01   3.678795E-01   3.678795E-01   3.678795E-01   3.678795E-01   3.678801E-01   3.678980E-01   3.711179E-01   4.031447E-01   2.547242E+00   2.718210E+00   2.718282E+00   2.718282E+00   2.718282E+00   2.718282E+00   2.718282E+00   2.718282E+00   2.718282E+00   2.718282E+00   2.718282E+00   2.718282E+00   2.718282E+00   2.718282E+00   2.718282E+00   2.718282E+00   2.718282E+00   2.718282E+00   2.718282E+00   2.718282E+00   2.718282E+00   2.718282E+00   2.718282E+00   2.718282E+00   2.718282E+00   2.718282E+00   2.718282E+00   2.718282E+00   2.718282E+00   2.718282E+00   2.718282E+00   2.718282E+00   2.718282E+00   2.718282E+00   2.718282E+00   2.718282E+00   2.718282E+00   2.718282E+00   2.718282E+00   2.718282E+00   2.718282E+00
   3.681759E-01   3.678803E-01   3.678798E-01   3.678795E-01   3.678795E-01   3.678795E-01   3.678795E-01   3.678795E-01   3.678795E-01   3.678795E-01   3.678795E-01   3.678795E-01   3.678795E-01   3.678795E-01   3.678795E-01   3.678795E-01   3.678795E-01   3.678795E-01   3.678795E-01   3.678795E-01   3.678795E-01   3.678795E-01   3.678795E-01   3.678795E-01   3.678795E-01   3.678795E-01   3.678795E-01   3.678795E-01   3.678795E-01   3.678795E-01   3.678795E-01   3.678795E-01   3.678795E-01   3.678795E-01   3.678795E-01   3.678795E-01   3.678795E-01   3.678795E-01   3.678795E-01   3.678795E-01   3.678795E-01   3.678795E-01   3.678795E-01   3.678795E-01   3.678795E-01   3.678795E-01   3.678795E-01   3.678795E-01   3.678795E-01   3.678795E-01   3.678795E-01   3.678795E-01   3.678795E-01   3.678795E-01   3.678795E-01   3.678795E-01   3.678795E-01   3.678795E-01   3.678795E-01   3.678795E-01   3.678795E-01   3.678820E-01   3.683286E-01   4.246708E-01   2.675613E+00   2.714800E+00   2.717110E+00   2.718265E+00   2.718281E+00   2.718282E+00   2.718282E+00   2.718282E+00   2.718282E+00   2.718282E+00   2.718282E+00   2.718282E+00   2.718282E+00   2.718282E+00   2.718282E+00   2.718282E+00   2.718282E+00   2.718282E+00   2.718282E+00   2.718282E+00   2.718282E+00   2.718282E+00   2.718282E+00   2.718282E+00   2.718282E+00   2.718282E+00   2.718282E+00   2.718282E+00   2.718282E+00   2.718282E+00   2.718282E+00   2.718282E+00   2.718282E+00
   3.682183E-01   3.678803E-01   3.678795E-01   3.678795E-01   3.678795E-01   3.678795E-01   3.678795E-01   3.678795E-01   3.678795E-01   3.678795E-01   3.678795E-01   3.678795E-01   3.678795E-01   3.678795E-01   3.678795E-01   3.678795E-01   3.678795E-01   3.678795E-01   3.678795E-01   3.678795E-01   3.678795E-01   3.678795E-01   3.678795E-01   3.678795E-01   3.678795E-01   3.678795E-01   3.678795E-01   3.678795E-01   3.678795E-01   3.678795E-01   3.678795E-01   3.678795E-01   3.678795E-01   3.678795E-01   3.678795E-01   3.678795E-01   3.678795E-01   3.678795E-01   3.678795E-01   3.678795E-01   3.678795E-01   3.678795E-01   3.678795E-01   3.678795E-01   3.678795E-01   3.678795E-01   3.678795E-01   3.678795E-01   3.678795E-01   3.678795E-01   3.678795E-01   3.678795E-01   3.678795E-01   3.678795E-01   3.678795E-01   3.678795E-01   3.678795E-01   3.678795E-01   3.678795E-01   3.678795E-01   3.678795E-01   3.678795E-01   3.678795E-01   3.678795E-01   3.678795E-01   3.678795E-01   3.678795E-01   3.678795E-01   3.678798E-01   3.679570E-01   3.689553E-01   3.679825E-01   3.678876E-01   3.678948E-01   3.690409E-01   3.744566E-01   3.704323E-01   3.710906E-01   4.188659E-01   1.234099E+00   2.716033E+00   2.718282E+00   2.718282E+00   2.718282E+00   2.718282E+00   2.718282E+00   2.718282E+00   2.718282E+00   2.718282E+00   2.718282E+00   2.718282E+00   2.718282E+00   2.718282E+00   2.718282E+00   2.718282E+00   2.718282E+00   2.718282E+00
   3.678801E-01   3.678795E-01   3.678795E-01   3.678795E-01   3.678795E-01   3.678795E-01   3.678795E-01   3.678795E-01   3.678795E-01   3.678795E-01   3.678795E-01   3.678795E-01   3.678795E-01   3.678795E-01   3.678795E-01   3.678795E-01   3.678795E-01   3.678795E-01   3.678795E-01   3.678795E-01   3.678795E-01   3.678795E-01   3.678795E-01   3.678795E-01   3.678795E-01   3.678795E-01   3.678795E-01   3.678795E-01   3.678795E-01   3.678795E-01   3.678795E-01   3.678795E-01   3.678795E-01   3.678795E-01   3.678795E-01   3.678795E-01   3.678795E-01   3.678795E-01   3.678795E-01   3.678795E-01   3.678795E-01   3.678795E-01   3.678795E-01   3.678795E-01   3.678795E-01   3.678795E-01   3.678795E-01   3.678795E-01   3.678795E-01   3.678795E-01   3.678795E-01   3.678795E-01   3.678795E-01   3.678795E-01   3.678795E-01   3.678795E-01   3.678795E-01   3.678795E-01   3.678795E-01   3.678795E-01   3.678795E-01   3.678795E-01   3.678795E-01   3.678795E-01   3.678795E-01   3.678795E-01   3.678795E-01   3.678795E-01   3.678795E-01   3.678795E-01   3.678795E-01   3.678795E-01   3.678795E-01   3.678795E-01   3.678795E-01   3.678795E-01   3.678795E-01   3.678795E-01   3.678795E-01   3.678795E-01   3.678795E-01   3.678795E-01   3.678795E-01   3.678797E-01   3.694124E-01   2.717648E+00   2.718282E+00   2.718282E+00   2.718282E+00   2.718282E+00   2.718282E+00   2.718282E+00   2.718282E+00   2.718282E+00   2.718282E+00   2.718282E+00   2.718282E+00
   3.679057E-01   3.678796E-01   3.678795E-01   3.678795E-01   3.678795E-01   3.678795E-01   3.678795E-01   3.678795E-01   3.678795E-01   3.678795E-01   3.678795E-01   3.678795E-01   3.678795E-01   3.678795E-01   3.678795E-01   3.678795E-01   3.678795E-01   3.678795E-01   3.678795E-01   3.678795E-01   3.678795E-01   3.678795E-01   3.678795E-01   3.678795E-01   3.678795E-01   3.678795E-01   3.678795E-01   3.678795E-01   3.678795E-01   3.678795E-01   3.678795E-01   3.678795E-01   3.678795E-01   3.678795E-01   3.678795E-01   3.678795E-01   3.678795E-01   3.678795E-01   3.678795E-01   3.678795E-01   3.678795E-01   3.678795E-01   3.678795E-01   3.678795E-01   3.678795E-01   3.678795E-01   3.678795E-01   3.678795E-01   3.678795E-01   3.678795E-01   3.678795E-01   3.678795E-01   3.678795E-01   3.678795E-01   3.678795E-01   3.678795E-01   3.678795E-01   3.678795E-01   3.678795E-01   3.678795E-01   3.678795E-01   3.678795E-01   3.678795E-01   3.678795E-01   3.678795E-01   3.678795E-01   3.678795E-01   3.678795E-01   3.678795E-01   3.678795E-01   3.678795E-01   3.678795E-01   3.678795E-01   3.678795E-01   3.678795E-01   3.678795E-01   3.678795E-01   3.678795E-01   3.678795E-01   3.678795E-01   3.678795E-01   3.678795E-01   3.678795E-01   3.678795E-01   3.679341E-01   2.630476E+00   2.718282E+00   2.718282E+00   2.718282E+00   2.718282E+00   2.718282E+00   2.718282E+00   2.718282E+00   2.718282E+00   2.718282E+00   2.718282E+00   2.718282E+00
   3.678795E-01   3.678795E-01   3.678795E-01   3.678795E-01   3.678795E-01   3.678795E-01   3.678795E-01   3.678795E-01   3.678795E-01   3.678795E-01   3.678795E-01   3.678795E-01   3.678795E-01   3.678795E-01   3.678795E-01   3.678795E-01   3.678795E-01   3.678795E-01   3.678795E-01   3.678795E-01   3.678795E-01   3.678795E-01   3.678795E-01   3.678795E-01   3.678795E-01   3.678795E-01   3.678795E-01   3.678795E-01   3.678795E-01   3.678795E-01   3.678795E-01   3.678795E-01   3.678795E-01   3.678795E-01   3.678795E-01   3.678795E-01   3.678795E-01   3.678795E-01   3.678795E-01   3.678795E-01   3.678795E-01   3.678795E-01   3.678795E-01   3.678795E-01   3.678795E-01   3.678795E-01   3.678795E-01   3.678795E-01   3.678795E-01   3.678795E-01   3.678795E-01   3.678795E-01   3.678795E-01   3.678795E-01   3.678795E-01   3.678795E-01   3.678795E-01   3.678795E-01   3.678795E-01   3.678795E-01   3.678795E-01   3.678795E-01   3.678795E-01   3.678795E-01   3.678795E-01   3.678795E-01   3.678795E-01   3.678795E-01   3.678795E-01   3.678795E-01   3.678795E-01   3.678795E-01   3.678795E-01   3.678795E-01   3.678795E-01   3.678795E-01   3.678795E-01   3.678795E-01   3.678795E-01   3.678795E-01   3.678795E-01   3.678795E-01   3.678795E-01   3.678795E-01   3.678795E-01   3.678795E-01   3.678805E-01   3.679968E-01   1.988558E+00   2.718279E+00   2.718282E+00   2.718282E+00   2.718282E+00   2.718282E+00   2.718282E+00   2.718282E+00   2.718282E+00
   3.678796E-01   3.678795E-01   3.678795E-01   3.678795E-01   3.678795E-01   3.678795E-01   3.678795E-01   3.678795E-01   3.678795E-01   3.678795E-01   3.678795E-01   3.678795E-01   3.678795E-01   3.678795E-01   3.678795E-01   3.678795E-01   3.678795E-01   3.678795E-01   3.678795E-01   3.678795E-01   3.678795E-01   3.678795E-01   3.678795E-01   3.678795E-01   3.678795E-01   3.678795E-01   3.678795E-01   3.678795E-01   3.678795E-01   3.678795E-01   3.678795E-01   3.678795E-01   3.678795E-01   3.678795E-01   3.678795E-01   3.678795E-01   3.678795E-01   3.678795E-01   3.678795E-01   3.678795E-01   3.678795E-01   3.678795E-01   3.678795E-01   3.678795E-01   3.678795E-01   3.678795E-01   3.678795E-01   3.678795E-01   3.678795E-01   3.678795E-01   3.678795E-01   3.678795E-01   3.678795E-01   3.678795E-01   3.678795E-01   3.678795E-01   3.678795E-01   3.678795E-01   3.678795E-01   3.678795E-01   3.678795E-01   3.678795E-01   3.678795E-01   3.678795E-01   3.678795E-01   3.678795E-01   3.678795E-01   3.678795E-01   3.678795E-01   3.678795E-01   3.678795E-01   3.678795E-01   3.678795E-01   3.678795E-01   3.678795E-01   3.678795E-01   3.678795E-01   3.678795E-01   3.678795E-01   3.678795E-01   3.678795E-01   3.678795E-01   3.678795E-01   3.678795E-01   3.678795E-01   3.678795E-01   3.678795E-01   3.678795E-01   3.685098E-01   2.614719E+00   2.718281E+00   2.718282E+00   2.718282E+00   2.718282E+00   2.718282E+00   2.718282E+00   2.718282E+00
   3.678795E-01   3.678795E-01   3.678795E-01   3.678795E-01   3.678795E-01   3.678795E-01   3.678795E-01   3.678795E-01   3.678795E-01   3.678795E-01   3.678795E-01   3.678795E-01   3.678795E-01   3.678795E-01   3.678795E-01   3.678795E-01   3.678795E-01   3.678795E-01   3.678795E-01   3.678795E-01   3.678795E-01   3.678795E-01   3.678795E-01   3.678795E-01   3.678795E-01   3.678795E-01   3.678795E-01   3.678795E-01   3.678795E-01   3.678795E-01   3.678795E-01   3.678795E-01   3.678795E-01   3.678795E-01   3.678795E-01   3.678795E-01   3.678795E-01   3.678795E-01   3.678795E-01   3.678795E-01   3.678795E-01   3.678795E-01   3.678795E-01   3.678795E-01   3.678795E-01   3.678795E-01   3.678795E-01   3.678795E-01   3.678795E-01   3.678795E-01   3.678795E-01   3.678795E-01   3.678795E-01   3.678795E-01   3.678795E-01   3.678795E-01   3.678795E-01   3.678795E-01   3.678795E-01   3.678795E-01   3.678795E-01   3.678795E-01   3.678795E-01   3.678795E-01   3.678795E-01   3.678795E-01   3.678795E-01   3.678795E-01   3.678795E-01   3.678795E-01   3.678795E-01   3.678795E-01   3.678795E-01   3.678795E-01   3.678795E-01   3.678795E-01   3.678795E-01   3.678795E-01   3.678795E-01   3.678795E-01   3.678795E-01   3.678795E-01   3.678795E-01   3.678795E-01   3.678795E-01   3.678795E-01   3.678795E-01   3.678795E-01   3.678795E-01   3.678795E-01   3.686173E-01   7.073599E-01   2.032261E+00   2.718232E+00   2.718282E+00   2.718282E+00   2.718282E+00