# GHB package for  MODFLOW-2005, generated by Flopy.
       100         0
       100         0 # stress period 1
         1         1         1            10.0          1200.0
         1         1        50            10.0          1200.0
         1         2         1            10.0          1200.0
         1         2        50            10.0          1200.0
         1         3         1            10.0          1200.0
         1         3        50            10.0          1200.0
         1         4         1            10.0          1200.0
         1         4        50            10.0          1200.0
         1         5         1            10.0          1200.0
         1         5        50            10.0          1200.0
         1         6         1            10.0          1200.0
         1         6        50            10.0          1200.0
         1         7         1            10.0          1200.0
         1         7        50            10.0          1200.0
         1         8         1            10.0          1200.0
         1         8        50            10.0          1200.0
         1         9         1            10.0          1200.0
         1         9        50            10.0          1200.0
         1        10         1            10.0          1200.0
         1        10        50            10.0          1200.0
         1        11         1            10.0          1200.0
         1        11        50            10.0          1200.0
         1        12         1            10.0          1200.0
         1        12        50            10.0          1200.0
         1        13         1            10.0          1200.0
         1        13        50            10.0          1200.0
         1        14         1            10.0          1200.0
         1        14        50            10.0          1200.0
         1        15         1            10.0          1200.0
         1        15        50            10.0          1200.0
         1        16         1            10.0          1200.0
         1        16        50            10.0          1200.0
         1        17         1            10.0          1200.0
         1        17        50            10.0          1200.0
         1        18         1            10.0          1200.0
         1        18        50            10.0          1200.0
         1        19         1            10.0          1200.0
         1        19        50            10.0          1200.0
         1        20         1            10.0          1200.0
         1        20        50            10.0          1200.0
         1        21         1            10.0          1200.0
         1        21        50            10.0          1200.0
         1        22         1            10.0          1200.0
         1        22        50            10.0          1200.0
         1        23         1            10.0          1200.0
         1        23        50            10.0          1200.0
         1        24         1            10.0          1200.0
         1        24        50            10.0          1200.0
         1        25         1            10.0          1200.0
         1        25        50            10.0          1200.0
         1        26         1            10.0          1200.0
         1        26        50            10.0          1200.0
         1        27         1            10.0          1200.0
         1        27        50            10.0          1200.0
         1        28         1            10.0          1200.0
         1        28        50            10.0          1200.0
         1        29         1            10.0          1200.0
         1        29        50            10.0          1200.0
         1        30         1            10.0          1200.0
         1        30        50            10.0          1200.0
         1        31         1            10.0          1200.0
         1        31        50            10.0          1200.0
         1        32         1            10.0          1200.0
         1        32        50            10.0          1200.0
         1        33         1            10.0          1200.0
         1        33        50            10.0          1200.0
         1        34         1            10.0          1200.0
         1        34        50            10.0          1200.0
         1        35         1            10.0          1200.0
         1        35        50            10.0          1200.0
         1        36         1            10.0          1200.0
         1        36        50            10.0          1200.0
         1        37         1            10.0          1200.0
         1        37        50            10.0          1200.0
         1        38         1            10.0          1200.0
         1        38        50            10.0          1200.0
         1        39         1            10.0          1200.0
         1        39        50            10.0          1200.0
         1        40         1            10.0          1200.0
         1        40        50            10.0          1200.0
         1        41         1            10.0          1200.0
         1        41        50            10.0          1200.0
         1        42         1            10.0          1200.0
         1        42        50            10.0          1200.0
         1        43         1            10.0          1200.0
         1        43        50            10.0          1200.0
         1        44         1            10.0          1200.0
         1        44        50            10.0          1200.0
         1        45         1            10.0          1200.0
         1        45        50            10.0          1200.0
         1        46         1            10.0          1200.0
         1        46        50            10.0          1200.0
         1        47         1            10.0          1200.0
         1        47        50            10.0          1200.0
         1        48         1            10.0          1200.0
         1        48        50            10.0          1200.0
         1        49         1            10.0          1200.0
         1        49        50            10.0          1200.0
         1        50         1            10.0          1200.0
         1        50        50            10.0          1200.0
       100         0 # stress period 2
         1         1         1            10.0          1200.0
         1         1        50             0.0          1000.0
         1         2         1            10.0          1200.0
         1         2        50             0.0          1000.0
         1         3         1            10.0          1200.0
         1         3        50             0.0          1000.0
         1         4         1            10.0          1200.0
         1         4        50             0.0          1000.0
         1         5         1            10.0          1200.0
         1         5        50             0.0          1000.0
         1         6         1            10.0          1200.0
         1         6        50             0.0          1000.0
         1         7         1            10.0          1200.0
         1         7        50             0.0          1000.0
         1         8         1            10.0          1200.0
         1         8        50             0.0          1000.0
         1         9         1            10.0          1200.0
         1         9        50             0.0          1000.0
         1        10         1            10.0          1200.0
         1        10        50             0.0          1000.0
         1        11         1            10.0          1200.0
         1        11        50             0.0          1000.0
         1        12         1            10.0          1200.0
         1        12        50             0.0          1000.0
         1        13         1            10.0          1200.0
         1        13        50             0.0          1000.0
         1        14         1            10.0          1200.0
         1        14        50             0.0          1000.0
         1        15         1            10.0          1200.0
         1        15        50             0.0          1000.0
         1        16         1            10.0          1200.0
         1        16        50             0.0          1000.0
         1        17         1            10.0          1200.0
         1        17        50             0.0          1000.0
         1        18         1            10.0          1200.0
         1        18        50             0.0          1000.0
         1        19         1            10.0          1200.0
         1        19        50             0.0          1000.0
         1        20         1            10.0          1200.0
         1        20        50             0.0          1000.0
         1        21         1            10.0          1200.0
         1        21        50             0.0          1000.0
         1        22         1            10.0          1200.0
         1        22        50             0.0          1000.0
         1        23         1            10.0          1200.0
         1        23        50             0.0          1000.0
         1        24         1            10.0          1200.0
         1        24        50             0.0          1000.0
         1        25         1            10.0          1200.0
         1        25        50             0.0          1000.0
         1        26         1            10.0          1200.0
         1        26        50             0.0          1000.0
         1        27         1            10.0          1200.0
         1        27        50             0.0          1000.0
         1        28         1            10.0          1200.0
         1        28        50             0.0          1000.0
         1        29         1            10.0          1200.0
         1        29        50             0.0          1000.0
         1        30         1            10.0          1200.0
         1        30        50             0.0          1000.0
         1        31         1            10.0          1200.0
         1        31        50             0.0          1000.0
         1        32         1            10.0          1200.0
         1        32        50             0.0          1000.0
         1        33         1            10.0          1200.0
         1        33        50             0.0          1000.0
         1        34         1            10.0          1200.0
         1        34        50             0.0          1000.0
         1        35         1            10.0          1200.0
         1        35        50             0.0          1000.0
         1        36         1            10.0          1200.0
         1        36        50             0.0          1000.0
         1        37         1            10.0          1200.0
         1        37        50             0.0          1000.0
         1        38         1            10.0          1200.0
         1        38        50             0.0          1000.0
         1        39         1            10.0          1200.0
         1        39        50             0.0          1000.0
         1        40         1            10.0          1200.0
         1        40        50             0.0          1000.0
         1        41         1            10.0          1200.0
         1        41        50             0.0          1000.0
         1        42         1            10.0          1200.0
         1        42        50             0.0          1000.0
         1        43         1            10.0          1200.0
         1        43        50             0.0          1000.0
         1        44         1            10.0          1200.0
         1        44        50             0.0          1000.0
         1        45         1            10.0          1200.0
         1        45        50             0.0          1000.0
         1        46         1            10.0          1200.0
         1        46        50             0.0          1000.0
         1        47         1            10.0          1200.0
         1        47        50             0.0          1000.0
         1        48         1            10.0          1200.0
         1        48        50             0.0          1000.0
         1        49         1            10.0          1200.0
         1        49        50             0.0          1000.0
         1        50         1            10.0          1200.0
         1        50        50             0.0          1000.0
        -1         0 # stress period 3
