# LPF package for  MODFLOW-2005, generated by Flopy.
        53    -1E+30         0  
         1
         0
   1.000000E+00
         0
         0
INTERNAL               1  (50E15.6) -1 #hk layer 1                    
   2.453568E+00   3.429670E+00   2.128021E+00   1.755426E+00   4.058978E+00   3.912523E+00   3.585728E+00   2.382501E+00   3.064209E+00   3.620620E+00   7.739646E-01   1.239157E+00   1.490523E+00   8.948086E-01   1.355662E+00   1.094982E+00   1.899907E+00   7.789716E-01   7.313170E-01   7.659537E-01   1.748156E+00   4.759149E-01   8.191401E-01   4.593217E-01   8.476629E-01   5.760790E-01   3.485323E-01   6.730547E-01   6.163759E-01   4.649066E-01   6.974000E-01   1.262541E+00   8.012506E-01   1.803630E+00   1.092812E+00   1.098418E+00   9.601625E-01   5.241385E-01   6.331784E-01   4.508116E-01   3.148706E-01   3.893519E-01   2.488760E-01   3.389005E-01   4.878293E-01   1.209304E+00   1.819473E+00   1.389716E+00   9.144787E-01   7.422642E-01
   2.012468E+00   1.807228E+00   1.951704E+00   2.960578E+00   8.511692E+00   5.547690E+00   5.006838E+00   4.196691E+00   4.843523E+00   1.533657E+00   1.300741E+00   1.127860E+00   1.595110E+00   1.892518E+00   1.572910E+00   1.116626E+00   7.574938E-01   7.793846E-01   4.733586E-01   6.339952E-01   1.295400E+00   1.358767E+00   3.890035E-01   8.082646E-01   7.099645E-01   5.234784E-01   4.140284E-01   5.113091E-01   4.882880E-01   5.922646E-01   1.052585E+00   1.680821E+00   1.572229E+00   9.315303E-01   1.123214E+00   8.816997E-01   6.772102E-01   9.014682E-01   4.585110E-01   3.292466E-01   6.315369E-01   5.549504E-01   1.946100E-01   3.551921E-01   9.251623E-01   1.195173E+00   9.286574E-01   6.782650E-01   4.258874E-01   2.317854E-01
   2.257791E+00   2.538860E+00   8.094434E+00   4.800842E+00   6.728995E+00   6.232449E+00   3.022918E+00   2.402184E+00   2.933748E+00   1.982366E+00   1.691165E+00   1.569822E+00   1.590762E+00   1.517588E+00   6.531870E-01   6.349577E-01   9.209040E-01   1.324268E+00   6.445231E-01   1.015643E+00   9.809494E-01   5.153901E-01   5.738391E-01   4.721156E-01   5.703695E-01   3.860979E-01   5.283740E-01   2.252184E-01   6.106179E-01   1.110103E+00   1.535722E+00   3.000941E+00   1.716864E+00   1.121823E+00   1.577095E+00   7.185211E-01   9.034373E-01   4.478381E-01   5.675010E-01   9.048916E-01   5.077061E-01   3.081741E-01   4.040275E-01   1.157985E+00   7.337726E-01   7.551456E-01   3.823534E-01   4.338918E-01   1.713317E-01   1.909478E-01
   1.865431E+00   4.462477E+00   5.666156E+00   9.529101E+00   1.074996E+01   4.211043E+00   2.112425E+00   1.752253E+00   1.972359E+00   1.885606E+00   1.273393E+00   2.092535E+00   1.005038E+00   8.437998E-01   5.209612E-01   1.565579E+00   1.744440E+00   7.370384E-01   1.567199E+00   1.110068E+00   3.844933E-01   4.696276E-01   6.485237E-01   7.687625E-01   6.919625E-01   3.120818E-01   6.514073E-01   9.344726E-01   1.817473E+00   2.336849E+00   2.758154E+00   1.831788E+00   1.109183E+00   3.754013E-01   8.381352E-01   9.815105E-01   4.350712E-01   6.447041E-01   7.712708E-01   1.290326E+00   3.015634E-01   3.187954E-01   1.118868E+00   5.718710E-01   7.026385E-01   3.995554E-01   3.887277E-01   2.745957E-01   1.588297E-01   2.219570E-01
   3.095056E+00   6.557269E+00   1.014474E+01   1.300996E+01   2.173121E+01   3.437839E+00   2.301637E+00   1.186783E+00   1.921892E+00   1.999232E+00   2.103866E+00   1.020402E+00   7.129712E-01   7.194778E-01   1.446891E+00   1.071341E+00   9.633180E-01   9.308628E-01   7.426329E-01   4.677566E-01   5.464039E-01   1.249616E+00   8.354731E-01   8.510759E-01   4.970739E-01   5.285613E-01   1.237625E+00   2.360354E+00   1.736717E+00   1.497669E+00   8.573079E-01   1.210108E+00   9.855821E-01   5.803606E-01   5.334795E-01   5.827885E-01   9.894063E-01   7.794461E-01   9.699472E-01   4.297397E-01   5.584912E-01   9.011204E-01   8.273028E-01   6.276520E-01   5.424663E-01   3.850607E-01   2.968006E-01   4.586964E-01   5.015892E-01   4.268797E-01
   6.212321E+00   8.382712E+00   1.184201E+01   9.884448E+00   8.131872E+00   4.956357E+00   2.835495E+00   1.706489E+00   4.087165E+00   1.115212E+00   1.334909E+00   4.689066E-01   7.419574E-01   9.258560E-01   7.193274E-01   6.358207E-01   1.031460E+00   7.111771E-01   5.037551E-01   4.950024E-01   5.184846E-01   6.414052E-01   6.521480E-01   3.014062E-01   6.939116E-01   7.465997E-01   1.351770E+00   1.673414E+00   9.501314E-01   1.538948E+00   1.369263E+00   8.877938E-01   9.292327E-01   8.453757E-01   9.171885E-01   1.829480E+00   1.104671E+00   1.573478E+00   6.747196E-01   7.132804E-01   7.561855E-01   6.818319E-01   7.102053E-01   5.758023E-01   3.697322E-01   3.181246E-01   4.065737E-01   7.635777E-01   4.587187E-01   5.838309E-01
   4.154796E+00   1.104703E+01   7.013743E+00   8.378839E+00   4.272904E+00   2.209923E+00   9.743861E-01   1.777660E+00   1.052118E+00   9.072063E-01   9.870600E-01   5.043651E-01   6.387675E-01   5.170655E-01   7.710860E-01   4.309126E-01   8.922062E-01   6.587121E-01   2.489273E-01   4.845370E-01   5.367637E-01   4.689970E-01   5.108900E-01   5.670784E-01   7.222275E-01   7.555249E-01   1.264172E+00   5.871358E-01   8.922487E-01   1.537312E+00   6.725377E-01   5.607757E-01   4.956059E-01   6.454835E-01   1.064837E+00   9.774258E-01   7.396113E-01   7.612575E-01   8.122154E-01   8.244175E-01   5.364496E-01   5.598460E-01   6.593983E-01   6.305802E-01   6.630547E-01   3.412096E-01   5.108472E-01   5.461271E-01   5.655667E-01   8.343109E-01
   4.548546E+00   1.045204E+01   6.396965E+00   3.866595E+00   2.563807E+00   5.198755E-01   5.846560E-01   8.325782E-01   4.927892E-01   1.096043E+00   6.307203E-01   6.467931E-01   8.948377E-01   4.530046E-01   6.323694E-01   7.798733E-01   7.853630E-01   6.195018E-01   4.482102E-01   3.257300E-01   4.426678E-01   9.022395E-01   7.320464E-01   3.131483E-01   5.207714E-01   4.433795E-01   4.567168E-01   7.887213E-01   1.707047E+00   7.246405E-01   4.373182E-01   5.779181E-01   6.128275E-01   4.586513E-01   5.611475E-01   1.159538E+00   1.662629E+00   1.156966E+00   5.660996E-01   3.843711E-01   3.613489E-01   7.640609E-01   4.852760E-01   3.990838E-01   6.905286E-01   2.776828E-01   8.005944E-01   7.158794E-01   4.310396E-01   4.943456E-01
   6.309745E+00   9.240163E+00   2.929587E+00   3.020473E+00   9.019591E-01   6.903645E-01   5.350617E-01   5.152802E-01   8.745022E-01   4.185444E-01   5.241820E-01   6.013823E-01   6.764019E-01   6.288092E-01   4.541902E-01   1.538177E+00   8.960751E-01   6.272236E-01   5.861537E-01   3.653915E-01   1.190324E+00   4.799358E-01   3.678927E-01   3.144563E-01   6.653750E-01   4.777249E-01   5.507524E-01   1.673735E+00   9.309036E-01   1.514878E+00   1.066655E+00   1.196132E+00   8.471323E-01   8.591596E-01   6.463968E-01   8.419790E-01   2.098444E+00   9.592641E-01   4.337202E-01   2.997706E-01   4.393978E-01   6.871244E-01   3.921101E-01   4.042512E-01   1.035282E-01   2.510635E-01   6.633426E-01   2.247162E-01   1.128729E+00   1.085429E+00
   4.234622E+00   3.350559E+00   3.005368E+00   1.095868E+00   5.661135E-01   5.033030E-01   6.202207E-01   1.792422E+00   6.368864E-01   7.303416E-01   9.599500E-01   7.502001E-01   1.241111E+00   6.064379E-01   8.793005E-01   7.476809E-01   4.810885E-01   8.279553E-01   4.857966E-01   1.410222E+00   4.492473E-01   4.183342E-01   7.585066E-01   7.043286E-01   1.078515E+00   9.904573E-01   5.912206E-01   1.036232E+00   1.491772E+00   1.413121E+00   9.139020E-01   1.129010E+00   1.700778E+00   1.173260E+00   2.290794E+00   3.792578E+00   1.464911E+00   9.558561E-01   3.277115E-01   5.497020E-01   1.179962E+00   6.173959E-01   2.347513E-01   1.354849E-01   2.161576E-01   5.606473E-01   3.553742E-01   8.145851E-01   1.555633E+00   8.664046E-01
   3.457073E+00   3.122033E+00   1.484795E+00   7.926247E-01   9.405633E-01   4.679474E-01   1.369576E+00   8.720913E-01   5.689874E-01   1.138708E+00   6.266144E-01   6.919966E-01   4.904404E-01   1.079235E+00   1.165189E+00   1.358019E+00   1.290498E+00   5.806235E-01   1.042058E+00   4.811867E-01   3.001554E-01   5.418924E-01   8.325706E-01   7.441097E-01   9.877431E-01   7.838303E-01   9.792095E-01   1.723853E+00   2.638105E+00   1.186535E+00   5.862237E-01   1.386982E+00   1.253726E+00   1.199465E+00   2.397204E+00   1.168487E+00   1.597268E+00   1.082011E+00   6.237902E-01   9.505148E-01   5.200835E-01   4.354398E-01   3.414027E-01   1.683944E-01   2.397248E-01   2.367984E-01   1.222898E+00   1.556105E+00   5.041386E-01   4.938887E-01
   5.427614E+00   1.489439E+00   8.011999E-01   4.581657E-01   3.302368E-01   5.355862E-01   7.946312E-01   9.692870E-01   6.437010E-01   8.807952E-01   5.123711E-01   6.404162E-01   5.861706E-01   1.037923E+00   1.201839E+00   1.148291E+00   1.238904E+00   9.498079E-01   8.116698E-01   4.267323E-01   8.189767E-01   8.588849E-01   8.630843E-01   6.448814E-01   6.419039E-01   8.542337E-01   2.104683E+00   1.629766E+00   1.302083E+00   8.605774E-01   8.462600E-01   1.728078E+00   1.335047E+00   1.843462E+00   1.319858E+00   1.012521E+00   8.911537E-01   7.362755E-01   7.364491E-01   7.126685E-01   3.609833E-01   2.817594E-01   1.045952E-01   1.263922E-01   3.111970E-01   1.211628E+00   1.082993E+00   6.032586E-01   5.468375E-01   2.394694E-01
   2.539966E+00   8.117229E-01   3.287908E-01   3.095629E-01   4.081409E-01   4.996341E-01   1.316477E+00   9.255763E-01   1.328347E+00   7.292671E-01   6.352755E-01   4.382807E-01   1.062597E+00   1.035316E+00   6.613352E-01   7.648188E-01   8.145058E-01   9.330192E-01   9.639419E-01   7.685410E-01   8.715050E-01   6.903743E-01   1.000048E+00   6.893047E-01   1.021305E+00   1.319639E+00   2.772187E+00   5.824050E-01   1.311803E+00   1.522285E+00   2.170771E+00   1.654349E+00   2.220522E+00   1.742056E+00   1.330965E+00   1.581142E+00   9.510394E-01   3.881852E-01   6.102948E-01   2.610416E-01   3.743634E-01   1.460625E-01   1.357177E-01   2.836438E-01   6.282400E-01   8.754011E-01   4.498885E-01   5.150115E-01   3.622962E-01   6.515214E-01
   7.024298E-01   3.480042E-01   1.797273E-01   2.282445E-01   3.327194E-01   1.171757E+00   1.755380E+00   1.127792E+00   9.842409E-01   6.311031E-01   6.581134E-01   1.568169E+00   1.117195E+00   1.472831E+00   4.825490E-01   5.360931E-01   6.945506E-01   4.624155E-01   7.960774E-01   5.961517E-01   8.965597E-01   6.745340E-01   1.053282E+00   9.232321E-01   2.041386E+00   3.770325E+00   9.950190E-01   1.193917E+00   1.338721E+00   3.532076E+00   2.158214E+00   1.627589E+00   2.592423E+00   1.426895E+00   2.078779E+00   1.640307E+00   4.091809E-01   4.395734E-01   3.393100E-01   1.993629E-01   2.683289E-01   1.882821E-01   5.245977E-01   3.264450E-01   4.843186E-01   5.773738E-01   5.937959E-01   5.416800E-01   4.266867E-01   1.071378E+00
   1.428246E-01   2.427796E-01   2.532704E-01   3.780853E-01   5.733956E-01   1.174303E+00   1.085216E+00   1.910928E+00   9.349568E-01   1.256929E+00   6.290860E-01   1.098681E+00   6.507362E-01   3.136596E-01   4.085310E-01   3.018156E-01   4.335482E-01   5.026562E-01   3.603895E-01   7.035245E-01   7.943079E-01   7.661738E-01   8.298353E-01   2.416928E+00   1.512029E+00   2.763738E+00   1.414279E+00   1.665831E+00   3.574626E+00   3.613014E+00   2.098080E+00   2.786351E+00   3.236669E+00   1.241767E+00   1.660139E+00   9.518099E-01   4.233765E-01   5.375960E-01   1.902940E-01   3.127324E-01   2.185296E-01   4.945998E-01   3.606939E-01   3.139924E-01   8.095568E-01   2.590545E-01   5.214499E-01   2.805572E-01   2.772178E-01   5.442412E-01
   3.161455E-01   2.653890E-01   2.981218E-01   4.290970E-01   9.519463E-01   1.267300E+00   1.963404E+00   3.093111E+00   1.240460E+00   1.156375E+00   1.017186E+00   1.224676E+00   5.386709E-01   2.933208E-01   3.834177E-01   5.716960E-01   2.593406E-01   1.908048E-01   3.725764E-01   3.931245E-01   8.040438E-01   1.284625E+00   1.502546E+00   9.264519E-01   1.351278E+00   1.390780E+00   8.865319E-01   1.249957E+00   1.729084E+00   1.568537E+00   4.497105E+00   2.049076E+00   2.140175E+00   1.916632E+00   1.304606E+00   7.185038E-01   4.782209E-01   1.751709E-01   2.783188E-01   3.301037E-01   4.178686E-01   1.933748E-01   2.526893E-01   2.600744E-01   3.810045E-01   1.544329E-01   2.536553E-01   1.968002E-01   6.323394E-01   7.036729E-01
   4.112472E-01   3.365313E-01   5.885547E-01   9.643515E-01   1.154426E+00   1.867229E+00   2.972356E+00   2.321156E+00   1.547694E+00   1.916026E+00   1.100795E+00   5.989552E-01   4.857029E-01   4.056589E-01   1.398103E+00   5.413011E-01   3.283222E-01   1.957695E-01   3.785554E-01   5.690420E-01   1.079162E+00   6.372630E-01   1.307759E+00   7.927911E-01   1.150660E+00   7.045293E-01   1.026856E+00   1.232557E+00   1.220197E+00   3.084028E+00   3.826139E+00   1.395629E+00   1.348862E+00   1.527641E+00   1.087876E+00   6.807711E-01   3.663067E-01   4.488646E-01   2.778185E-01   2.624767E-01   3.091263E-01   2.137481E-01   3.202605E-01   3.198880E-01   3.269944E-01   3.319460E-01   3.507166E-01   3.212030E-01   3.836414E-01   4.418444E-01
   3.147885E-01   2.728025E-01   7.858675E-01   1.591667E+00   1.430154E+00   3.485709E+00   2.002764E+00   1.439121E+00   1.975096E+00   1.214072E+00   1.080596E+00   6.837907E-01   8.177637E-01   1.070984E+00   7.844321E-01   4.061098E-01   4.070061E-01   4.527582E-01   4.464607E-01   6.682799E-01   4.134322E-01   6.817482E-01   1.358153E+00   2.171015E+00   1.373951E+00   1.583856E+00   1.678536E+00   1.249367E+00   2.170501E+00   1.904686E+00   2.016244E+00   1.171574E+00   8.810938E-01   9.516702E-01   9.056634E-01   6.154059E-01   7.133795E-01   7.498681E-01   3.864376E-01   2.762176E-01   1.116388E-01   3.627572E-01   2.807252E-01   4.215128E-01   3.671543E-01   1.557770E-01   1.843750E-01   1.715763E-01   2.845406E-01   3.297870E-01
   5.406093E-01   5.670872E-01   1.494102E+00   1.152145E+00   3.817360E+00   2.869877E+00   3.054535E+00   3.217609E+00   2.194102E+00   9.475119E-01   1.010536E+00   7.275840E-01   9.448502E-01   6.909332E-01   6.049476E-01   4.864786E-01   4.668012E-01   4.737965E-01   3.964513E-01   5.864720E-01   4.685698E-01   1.709965E+00   2.585627E+00   3.382298E+00   1.329130E+00   2.559386E+00   2.112570E+00   3.152537E+00   4.633240E+00   1.381414E+00   1.354888E+00   9.040169E-01   6.503890E-01   1.236406E+00   1.391117E+00   1.093636E+00   4.426742E-01   4.550178E-01   2.654073E-01   1.406699E-01   1.346782E-01   2.681042E-01   2.611765E-01   3.058528E-01   1.958904E-01   1.603916E-01   1.549411E-01   3.106942E-01   1.957663E-01   3.012046E-01
   6.258206E-01   1.131050E+00   2.364068E+00   3.269451E+00   2.839355E+00   1.730205E+00   2.519495E+00   2.161286E+00   2.376145E+00   8.678482E-01   7.880891E-01   5.912427E-01   4.600613E-01   4.803198E-01   7.092289E-01   9.294807E-01   3.480456E-01   6.178994E-01   1.010731E+00   9.301596E-01   1.976502E+00   1.482485E+00   3.850630E+00   1.725757E+00   1.930476E+00   2.033139E+00   1.902256E+00   4.124161E+00   3.675507E+00   3.408861E+00   1.274274E+00   3.449540E-01   9.087933E-01   1.051131E+00   1.006526E+00   7.380308E-01   3.387075E-01   5.112984E-01   2.524711E-01   1.984667E-01   2.221940E-01   3.385829E-01   1.153052E-01   2.563501E-01   1.524663E-01   2.063765E-01   3.471422E-01   1.051804E-01   2.720277E-01   1.678078E-01
   1.271950E+00   1.958496E+00   5.041163E+00   2.164046E+00   2.586736E+00   2.337178E+00   1.931792E+00   2.112902E+00   1.028791E+00   4.119250E-01   3.677681E-01   1.912109E-01   1.687163E-01   1.851063E-01   5.598264E-01   5.749336E-01   4.217245E-01   1.040895E+00   6.356052E-01   9.378501E-01   1.450028E+00   1.531174E+00   1.764943E+00   1.204583E+00   2.122855E+00   2.371675E+00   9.105560E-01   2.497095E+00   2.454114E+00   1.045503E+00   5.424207E-01   3.713564E-01   6.493146E-01   6.950967E-01   4.678522E-01   2.598239E-01   5.324321E-01   3.560286E-01   9.436578E-02   1.552460E-01   3.408458E-01   1.437597E-01   2.310329E-01   1.874246E-01   2.014360E-01   3.065784E-01   1.897119E-01   2.567487E-01   3.860177E-01   3.062885E-01
   3.328503E+00   4.342929E+00   2.851144E+00   3.077703E+00   3.098843E+00   2.801034E+00   7.654244E-01   9.777105E-01   7.220879E-01   5.956482E-01   2.848067E-01   2.484658E-01   2.373922E-01   4.742277E-01   6.983265E-01   9.552399E-01   1.520742E+00   1.704116E+00   5.492588E-01   1.214243E+00   9.170755E-01   6.929134E-01   4.887264E-01   2.680956E+00   1.896379E+00   7.637130E-01   2.849638E+00   1.886783E+00   6.259142E-01   9.084692E-01   5.346913E-01   6.177490E-01   5.512401E-01   8.007284E-01   3.129127E-01   2.133545E-01   2.858231E-01   1.167194E-01   2.228301E-01   4.205483E-01   1.202428E-01   2.237970E-01   1.592143E-01   3.141622E-01   2.610635E-01   1.610199E-01   4.208434E-01   4.513803E-01   5.663803E-01   2.217364E-01
   1.549824E+00   2.572278E+00   2.926421E+00   3.895579E+00   1.534939E+00   1.267081E+00   8.171613E-01   2.124672E+00   9.110193E-01   3.396936E-01   3.117838E-01   2.503767E-01   4.555309E-01   4.893840E-01   1.463796E+00   1.472973E+00   1.284377E+00   7.611869E-01   1.337611E+00   1.548307E+00   5.960547E-01   8.201689E-01   1.751648E+00   1.362196E+00   8.099152E-01   1.660411E+00   1.594033E+00   5.504220E-01   1.067563E+00   1.240458E+00   5.401689E-01   9.616284E-01   7.317784E-01   2.213957E-01   1.865363E-01   1.013535E-01   7.925387E-02   1.039666E-01   1.764096E-01   1.647420E-01   3.184577E-01   2.246553E-01   3.342726E-01   4.578833E-01   1.310633E-01   3.231946E-01   2.652670E-01   4.433129E-01   2.987305E-01   3.294392E-01
   4.726438E+00   2.010401E+00   1.421652E+00   1.207571E+00   1.310004E+00   8.822656E-01   1.161976E+00   1.443762E+00   7.536233E-01   2.527583E-01   2.583800E-01   3.386877E-01   4.290619E-01   6.474185E-01   5.864903E-01   4.785215E-01   7.425382E-01   1.604676E+00   1.574851E+00   1.448195E+00   9.161922E-01   1.438839E+00   1.064576E+00   5.158308E-01   1.032166E+00   1.024682E+00   5.724373E-01   1.689953E+00   1.530391E+00   6.571410E-01   1.806936E+00   1.692856E+00   6.077739E-01   2.394762E-01   2.278492E-01   9.393030E-02   1.449652E-01   1.310622E-01   7.035223E-02   3.283233E-01   2.414487E-01   2.724930E-01   2.169919E-01   1.516684E-01   1.527448E-01   2.651739E-01   2.884010E-01   2.950831E-01   3.764876E-01   5.419274E-01
   1.488257E+00   5.802609E-01   6.159868E-01   4.957707E-01   5.241808E-01   1.180540E+00   9.869242E-01   1.120003E+00   5.504726E-01   2.964190E-01   2.055784E-01   3.593950E-01   7.004475E-01   3.233599E-01   4.361286E-01   5.631639E-01   7.638882E-01   1.627268E+00   9.997650E-01   4.063211E-01   5.804753E-01   1.059393E+00   4.709715E-01   7.569708E-01   7.064279E-01   1.516127E+00   1.226150E+00   1.393778E+00   1.128174E+00   1.998229E+00   1.718415E+00   1.167653E+00   2.669654E-01   3.391166E-01   2.103999E-01   1.056689E-01   9.925508E-02   1.010746E-01   2.123541E-01   1.471572E-01   2.867962E-01   1.467832E-01   2.542395E-01   1.478421E-01   1.492122E-01   4.291754E-01   5.416830E-01   1.614939E-01   3.078174E-01   8.292203E-01
   7.034786E-01   3.323758E-01   3.410635E-01   6.917090E-01   1.112368E+00   1.454515E+00   1.222429E+00   4.747600E-01   3.829031E-01   1.104359E-01   2.786571E-01   3.804778E-01   3.557205E-01   3.169070E-01   3.714125E-01   3.811356E-01   9.630179E-01   1.663635E+00   5.146324E-01   6.105405E-01   5.069983E-01   5.971265E-01   8.416402E-01   1.149639E+00   1.428086E+00   1.310976E+00   1.017500E+00   1.332472E+00   1.193992E+00   1.358447E+00   1.179182E+00   5.485739E-01   5.107419E-01   3.339497E-01   2.972441E-01   1.234308E-01   1.402358E-01   4.909888E-01   2.180813E-01   2.290162E-01   3.177686E-01   2.026385E-01   2.620345E-01   2.438024E-01   3.168308E-01   8.786512E-01   3.726868E-01   3.593274E-01   1.164489E+00   7.482753E-01
   8.059972E-01   3.582156E-01   4.662211E-01   1.990436E+00   1.471865E+00   7.629824E-01   1.089416E+00   4.661196E-01   2.725657E-01   2.584923E-01   4.716363E-01   4.377070E-01   5.338434E-01   5.038748E-01   4.866091E-01   1.966816E+00   1.372474E+00   4.134459E-01   4.686658E-01   2.854387E-01   9.704045E-01   7.914186E-01   9.518591E-01   1.507235E+00   1.390525E+00   8.972075E-01   1.387573E+00   1.249343E+00   1.208654E+00   1.427417E+00   4.494058E-01   6.144940E-01   5.689263E-01   3.577613E-01   2.957056E-01   1.773250E-01   4.461589E-01   2.854285E-01   2.448917E-01   2.580458E-01   2.385132E-01   1.024580E-01   2.388845E-01   3.177305E-01   8.591511E-01   6.335003E-01   6.814058E-01   8.708752E-01   7.257342E-01   6.926829E-01
   6.189365E-01   1.167145E+00   1.145233E+00   5.038070E-01   6.645978E-01   6.415283E-01   9.715458E-01   7.680785E-01   5.401987E-01   5.946234E-01   7.113310E-01   8.023862E-01   5.098239E-01   5.292693E-01   1.972939E+00   2.127031E+00   1.269226E+00   5.538496E-01   5.761526E-01   9.591195E-01   2.740099E+00   1.652077E+00   1.559945E+00   1.791578E+00   7.986783E-01   1.279174E+00   1.068380E+00   1.499616E+00   6.339228E-01   6.002921E-01   8.910442E-01   1.041479E+00   3.373307E-01   2.948584E-01   1.937803E-01   2.663550E-01   3.022894E-01   1.643089E-01   4.222284E-01   1.972244E-01   2.187933E-01   2.272594E-01   1.821899E-01   6.272733E-01   1.040627E+00   7.872930E-01   9.318091E-01   4.756435E-01   6.120450E-01   7.089148E-01
   1.038744E+00   4.915737E-01   6.538729E-01   5.571957E-01   5.266969E-01   1.022635E+00   4.756849E-01   8.189766E-01   8.676141E-01   1.264127E+00   1.064608E+00   1.280272E+00   7.348710E-01   1.251003E+00   1.226395E+00   9.699566E-01   5.341563E-01   4.665761E-01   7.555382E-01   1.744208E+00   2.653805E+00   1.809538E+00   1.410849E+00   9.377837E-01   2.293111E+00   1.273052E+00   8.926319E-01   7.065361E-01   7.389270E-01   1.017656E+00   1.462340E+00   6.266615E-01   7.332044E-01   2.803603E-01   2.799607E-01   4.130529E-01   4.744125E-01   3.083629E-01   2.197017E-01   1.789636E-01   2.490096E-01   9.880619E-02   1.920348E-01   7.085112E-01   9.800869E-01   7.502128E-01   6.587108E-01   5.403414E-01   1.093135E+00   5.378112E-01
   3.687961E-01   6.558487E-01   4.627808E-01   3.672675E-01   8.529750E-01   9.577410E-01   7.193478E-01   1.181795E+00   1.426275E+00   8.033808E-01   7.623478E-01   6.260223E-01   8.194252E-01   9.350930E-01   8.787525E-01   4.676231E-01   3.139599E-01   8.040583E-01   8.622441E-01   4.011610E+00   2.475775E+00   1.686334E+00   8.473905E-01   1.008045E+00   1.146183E+00   1.367765E+00   6.285473E-01   8.495033E-01   8.733787E-01   1.118285E+00   8.699065E-01   1.928923E+00   4.813398E-01   4.195614E-01   5.735720E-01   6.548397E-01   2.788087E-01   1.096547E-01   8.904488E-02   2.389297E-01   1.693005E-01   3.358278E-01   2.475664E-01   6.430885E-01   5.842389E-01   4.799010E-01   6.510845E-01   7.796952E-01   4.396636E-01   7.347801E-01
   2.662771E-01   4.146053E-01   3.905632E-01   5.241290E-01   8.356956E-01   1.890344E+00   1.296013E+00   3.310591E+00   1.369814E+00   1.354240E+00   7.398593E-01   8.637411E-01   1.145135E+00   1.133640E+00   5.905768E-01   3.435163E-01   4.815676E-01   1.595562E+00   2.441888E+00   1.792046E+00   9.076463E-01   4.250098E-01   5.772024E-01   9.246764E-01   5.028675E-01   1.279466E+00   8.897141E-01   2.483643E+00   1.363309E+00   1.453960E+00   1.092061E+00   7.063956E-01   7.278789E-01   5.293198E-01   3.950363E-01   3.734032E-01   1.090318E-01   2.341377E-01   1.138765E-01   1.615673E-01   2.222519E-01   1.079872E-01   4.082525E-01   5.618964E-01   1.297492E+00   8.116392E-01   6.982965E-01   6.563118E-01   5.032254E-01   9.195023E-01
   2.768939E-01   2.325528E-01   4.066623E-01   7.387705E-01   1.830085E+00   1.423932E+00   1.299186E+00   1.082153E+00   1.142054E+00   1.517419E+00   7.256927E-01   1.765263E+00   9.199904E-01   1.265972E+00   1.282922E+00   7.643529E-01   1.433761E+00   1.634119E+00   7.784512E-01   8.452067E-01   5.590256E-01   3.303096E-01   6.063395E-01   8.208348E-01   4.091184E-01   9.289644E-01   1.343988E+00   1.033534E+00   8.206372E-01   6.726028E-01   1.474495E+00   1.082103E+00   3.104465E-01   5.859378E-01   6.181177E-01   2.301787E-01   1.636054E-01   2.265134E-01   2.240345E-01   1.627429E-01   1.337679E-01   1.715687E-01   9.294516E-01   1.418911E+00   8.226628E-01   7.409358E-01   8.487813E-01   6.094213E-01   8.414724E-01   4.343332E-01
   3.512662E-01   4.331452E-01   1.009293E+00   1.409341E+00   1.468371E+00   8.305017E-01   6.599898E-01   8.698037E-01   6.366658E-01   6.652942E-01   1.446496E+00   8.184318E-01   1.398545E+00   9.866381E-01   1.324660E+00   2.207294E+00   1.385212E+00   1.616480E+00   1.027128E+00   6.685854E-01   4.694416E-01   8.659398E-01   8.589771E-01   4.511137E-01   5.112563E-01   7.242999E-01   1.581541E+00   1.240768E+00   9.508712E-01   1.061871E+00   1.849350E+00   4.624644E-01   6.041139E-01   4.364174E-01   2.569117E-01   2.010992E-01   2.098402E-01   4.027190E-01   1.630975E-01   1.329909E-01   2.772829E-01   6.721116E-01   1.751617E+00   1.304679E+00   1.280855E+00   9.948867E-01   5.047848E-01   6.270740E-01   5.793055E-01   9.240106E-01
   4.597688E-01   1.105667E+00   1.415175E+00   1.639745E+00   9.807614E-01   8.327048E-01   9.320126E-01   6.394776E-01   1.089348E+00   1.160157E+00   1.220775E+00   3.238791E+00   1.601449E+00   1.896273E+00   1.775935E+00   1.282130E+00   2.233204E+00   2.316932E+00   8.482224E-01   7.161471E-01   1.043795E+00   1.046517E+00   6.785022E-01   5.048029E-01   4.130644E-01   5.128739E-01   1.131756E+00   9.373258E-01   1.408917E+00   7.707135E-01   1.759800E+00   9.937595E-01   8.693569E-01   4.253289E-01   3.686293E-01   1.612573E-01   1.887562E-01   3.775522E-01   1.509896E-01   3.472993E-01   1.267873E+00   1.656278E+00   8.810183E-01   7.200714E-01   6.634763E-01   5.357514E-01   7.719247E-01   7.085854E-01   1.142669E+00   2.546921E+00
   1.025861E+00   2.258160E+00   1.461878E+00   2.048342E+00   8.840533E-01   9.280564E-01   6.875117E-01   7.100502E-01   1.050602E+00   3.325187E+00   4.348607E+00   1.338333E+00   1.107901E+00   7.560879E-01   1.696386E+00   3.158838E+00   2.150226E+00   8.678457E-01   7.105383E-01   1.008569E+00   9.378349E-01   1.080033E+00   7.574475E-01   2.813110E-01   4.290798E-01   6.235127E-01   9.089489E-01   2.224044E+00   9.065176E-01   1.522217E+00   1.453434E+00   1.028041E+00   6.620756E-01   3.076502E-01   1.340922E-01   3.620336E-01   4.645083E-01   2.570987E-01   3.407670E-01   1.777669E+00   1.302592E+00   1.008722E+00   1.349580E+00   1.068027E+00   4.375199E-01   3.696734E-01   1.727429E+00   2.640217E+00   1.969545E+00   1.961553E+00
   8.462268E-01   9.722303E-01   1.619475E+00   1.287450E+00   5.731936E-01   3.213125E-01   3.215510E-01   9.666934E-01   2.300984E+00   4.180774E+00   9.372240E-01   1.510316E+00   1.086036E+00   1.361353E+00   1.613390E+00   2.510185E+00   1.504587E+00   1.442478E+00   1.303709E+00   5.437345E-01   6.726534E-01   7.271078E-01   3.238643E-01   3.039867E-01   4.645340E-01   7.313696E-01   1.314249E+00   7.991434E-01   6.583091E-01   1.310166E+00   8.630903E-01   5.754457E-01   3.031788E-01   2.474369E-01   4.000998E-01   3.659613E-01   6.935502E-01   2.624359E-01   1.794663E+00   1.605526E+00   1.789088E+00   1.602106E+00   9.663308E-01   4.469099E-01   2.364497E-01   6.313379E-01   1.688559E+00   1.658351E+00   2.651457E+00   1.473791E+00
   1.201541E+00   2.275898E+00   3.789284E+00   7.190088E-01   4.243670E-01   5.229148E-01   5.897348E-01   1.647575E+00   2.355548E+00   1.142039E+00   6.801090E-01   1.444132E+00   1.603512E+00   1.388289E+00   1.593898E+00   1.978592E+00   1.223414E+00   1.182295E+00   6.376132E-01   7.604569E-01   1.036022E+00   3.851618E-01   2.611864E-01   3.604340E-01   2.061255E-01   3.319879E-01   3.049237E-01   5.270668E-01   6.368730E-01   4.073662E-01   9.334263E-01   2.933920E-01   2.382317E-01   4.716185E-01   7.567532E-01   6.656423E-01   6.513809E-01   1.725690E+00   1.139468E+00   2.389056E+00   1.477720E+00   9.925569E-01   5.084053E-01   1.994880E-01   2.390396E-01   3.074300E-01   1.067691E+00   2.660858E+00   2.229814E+00   3.215528E+00
   1.615948E+00   2.291056E+00   1.348887E+00   9.173732E-01   4.738972E-01   6.168675E-01   1.420133E+00   2.206425E+00   1.625968E+00   7.188993E-01   6.036386E-01   1.017162E+00   1.902173E+00   1.133892E+00   1.767462E+00   2.102328E+00   2.716577E+00   1.144859E+00   6.434812E-01   1.309493E+00   5.270153E-01   2.024793E-01   1.806704E-01   2.351564E-01   2.299393E-01   2.951352E-01   3.876646E-01   3.677931E-01   8.895555E-01   3.520899E-01   3.523013E-01   2.001464E-01   6.242406E-01   6.921086E-01   4.199427E-01   7.857883E-01   1.556251E+00   1.028016E+00   1.455701E+00   1.465858E+00   9.870520E-01   4.178771E-01   4.516238E-01   1.871361E-01   1.786359E-01   7.062626E-01   1.268025E+00   1.281952E+00   2.331536E+00   4.263538E+00
   9.785929E-01   6.418310E-01   8.690180E-01   6.372828E-01   5.028241E-01   7.215406E-01   2.060900E+00   2.033763E+00   8.415731E-01   1.113180E+00   1.129628E+00   1.065292E+00   1.977369E+00   1.211192E+00   1.469559E+00   1.459310E+00   1.486093E+00   9.983914E-01   1.249657E+00   8.001904E-01   3.207287E-01   2.216241E-01   1.429217E-01   1.555516E-01   2.714897E-01   2.748627E-01   2.911498E-01   4.934292E-01   1.069754E+00   4.660656E-01   1.440393E-01   6.719617E-01   8.891871E-01   5.315301E-01   9.177390E-01   1.584734E+00   1.747651E+00   1.022467E+00   1.478983E+00   1.500432E+00   3.011732E-01   2.881083E-01   3.520591E-01   2.586465E-01   1.209662E+00   1.876480E+00   1.957365E+00   1.856361E+00   2.778155E+00   1.106197E+00